*Heading
** Job name: Job-Rail-Tension Model name: Model-1
** Generated by: Abaqus/CAE 2023
*Preprint, echo=NO, model=NO, history=NO, contact=NO
**
** PARTS
**
*Part, name=Ballast_Layer
*Node
      1,         100.,           2.
      2,         105.,           2.
      3,         110.,           2.
      4,         115.,           2.
      5,         120.,           2.
      6,         125.,           2.
      7,         130.,           2.
      8,         135.,           2.
      9,         140.,           2.
     10,         145.,           2.
     11,         150.,           2.
     12,         155.,           2.
     13,         160.,           2.
     14,         165.,           2.
     15,         170.,           2.
     16,         175.,           2.
     17,         180.,           2.
     18,         185.,           2.
     19,         190.,           2.
     20,         195.,           2.
** ... 22 like lines cut
*Element, type=CPS4R
 1,  1,  2, 23, 22
 2,  2,  3, 24, 23
 3,  3,  4, 25, 24
 4,  4,  5, 26, 25
 5,  5,  6, 27, 26
 6,  6,  7, 28, 27
 7,  7,  8, 29, 28
 8,  8,  9, 30, 29
 9,  9, 10, 31, 30
10, 10, 11, 32, 31
11, 11, 12, 33, 32
12, 12, 13, 34, 33
13, 13, 14, 35, 34
14, 14, 15, 36, 35
15, 15, 16, 37, 36
16, 16, 17, 38, 37
17, 17, 18, 39, 38
18, 18, 19, 40, 39
19, 19, 20, 41, 40
20, 20, 21, 42, 41
*Nset, nset=Set-1, generate
  1,  42,   1
*Elset, elset=Set-1, generate
  1,  20,   1
** Section: Section-ballast-
*Solid Section, elset=Set-1, material=ballast
,
*End Part
**  
*Part, name=Concrete_Slab
*Node
      1,           0.,          3.5
      2,           5.,          3.5
      3,          10.,          3.5
      4,          15.,          3.5
      5,          20.,          3.5
      6,          25.,          3.5
      7,          30.,          3.5
      8,          35.,          3.5
      9,          40.,          3.5
     10,          45.,          3.5
     11,          50.,          3.5
     12,          55.,          3.5
     13,          60.,          3.5
     14,          65.,          3.5
     15,          70.,          3.5
     16,          75.,          3.5
     17,          80.,          3.5
     18,          85.,          3.5
     19,          90.,          3.5
     20,          95.,          3.5
** ... 22 like lines cut
*Element, type=CPS4R
 1,  1,  2, 23, 22
 2,  2,  3, 24, 23
 3,  3,  4, 25, 24
 4,  4,  5, 26, 25
 5,  5,  6, 27, 26
 6,  6,  7, 28, 27
 7,  7,  8, 29, 28
 8,  8,  9, 30, 29
 9,  9, 10, 31, 30
10, 10, 11, 32, 31
11, 11, 12, 33, 32
12, 12, 13, 34, 33
13, 13, 14, 35, 34
14, 14, 15, 36, 35
15, 15, 16, 37, 36
16, 16, 17, 38, 37
17, 17, 18, 39, 38
18, 18, 19, 40, 39
19, 19, 20, 41, 40
20, 20, 21, 42, 41
*Nset, nset=Set-1, generate
  1,  42,   1
*Elset, elset=Set-1, generate
  1,  20,   1
** Section: Section-Concrete-
*Solid Section, elset=Set-1, material=concrete
,
*End Part
**  
*Part, name=Substrate_Layer
*Node
      1,           0.,          -2.
      2,          10.,          -2.
      3,          20.,          -2.
      4,          30.,          -2.
      5,          40.,          -2.
      6,          50.,          -2.
      7,          60.,          -2.
      8,          70.,          -2.
      9,          80.,          -2.
     10,          90.,          -2.
     11,         100.,          -2.
     12,         110.,          -2.
     13,         120.,          -2.
     14,         130.,          -2.
     15,         140.,          -2.
     16,         150.,          -2.
     17,         160.,          -2.
     18,         170.,          -2.
     19,         180.,          -2.
     20,         190.,          -2.
** ... 22 like lines cut
*Element, type=CPS4R
 1,  1,  2, 23, 22
 2,  2,  3, 24, 23
 3,  3,  4, 25, 24
 4,  4,  5, 26, 25
 5,  5,  6, 27, 26
 6,  6,  7, 28, 27
 7,  7,  8, 29, 28
 8,  8,  9, 30, 29
 9,  9, 10, 31, 30
10, 10, 11, 32, 31
11, 11, 12, 33, 32
12, 12, 13, 34, 33
13, 13, 14, 35, 34
14, 14, 15, 36, 35
15, 15, 16, 37, 36
16, 16, 17, 38, 37
17, 17, 18, 39, 38
18, 18, 19, 40, 39
19, 19, 20, 41, 40
20, 20, 21, 42, 41
*Nset, nset=Set-1, generate
  1,  42,   1
*Elset, elset=Set-1, generate
  1,  20,   1
** Section: Section-Soil-
*Solid Section, elset=Set-1, material=soil
,
*End Part
**  
*Part, name=Substraye_Layer_2
*Node
      1,           0.,           2.
      2,           5.,           2.
      3,          10.,           2.
      4,          15.,           2.
      5,          20.,           2.
      6,          25.,           2.
      7,          30.,           2.
      8,          35.,           2.
      9,          40.,           2.
     10,          45.,           2.
     11,          50.,           2.
     12,          55.,           2.
     13,          60.,           2.
     14,          65.,           2.
     15,          70.,           2.
     16,          75.,           2.
     17,          80.,           2.
     18,          85.,           2.
     19,          90.,           2.
     20,          95.,           2.
** ... 22 like lines cut
*Element, type=CPS4R
 1,  1,  2, 23, 22
 2,  2,  3, 24, 23
 3,  3,  4, 25, 24
 4,  4,  5, 26, 25
 5,  5,  6, 27, 26
 6,  6,  7, 28, 27
 7,  7,  8, 29, 28
 8,  8,  9, 30, 29
 9,  9, 10, 31, 30
10, 10, 11, 32, 31
11, 11, 12, 33, 32
12, 12, 13, 34, 33
13, 13, 14, 35, 34
14, 14, 15, 36, 35
15, 15, 16, 37, 36
16, 16, 17, 38, 37
17, 17, 18, 39, 38
18, 18, 19, 40, 39
19, 19, 20, 41, 40
20, 20, 21, 42, 41
*Nset, nset=Set-1, generate
  1,  42,   1
*Elset, elset=Set-1, generate
  1,  20,   1
** Section: Section-Soil-
*Solid Section, elset=Set-1, material=soil
,
*End Part
**  
*Part, name=rail
*Node
      1,           0.,          4.5
      2,           1.,          4.5
      3,           2.,          4.5
      4,           3.,          4.5
      5,           4.,          4.5
      6,           5.,          4.5
      7,           6.,          4.5
      8,           7.,          4.5
      9,           8.,          4.5
     10,           9.,          4.5
     11,          10.,          4.5
     12,          11.,          4.5
     13,          12.,          4.5
     14,          13.,          4.5
     15,          14.,          4.5
     16,          15.,          4.5
     17,          16.,          4.5
     18,          17.,          4.5
     19,          18.,          4.5
     20,          19.,          4.5
** ... 382 like lines cut
*Element, type=CPS4R
  1,   1,   2, 203, 202
  2,   2,   3, 204, 203
  3,   3,   4, 205, 204
  4,   4,   5, 206, 205
  5,   5,   6, 207, 206
  6,   6,   7, 208, 207
  7,   7,   8, 209, 208
  8,   8,   9, 210, 209
  9,   9,  10, 211, 210
 10,  10,  11, 212, 211
 11,  11,  12, 213, 212
 12,  12,  13, 214, 213
 13,  13,  14, 215, 214
 14,  14,  15, 216, 215
 15,  15,  16, 217, 216
 16,  16,  17, 218, 217
 17,  17,  18, 219, 218
 18,  18,  19, 220, 219
 19,  19,  20, 221, 220
 20,  20,  21, 222, 221
** ... 180 like lines cut
*Nset, nset=Set-1, generate
   1,  402,    1
*Elset, elset=Set-1, generate
   1,  200,    1
** Section: Section-Steel-
*Solid Section, elset=Set-1, material=steel
,
*End Part
**  
*Part, name=traverse
*Node
      1,  0.400000006,           1.
      2,  0.349999994,           1.
      3,  0.300000012,           1.
      4,         0.25,           1.
      5,  0.200000003,           1.
      6,  0.150000006,           1.
      7,  0.100000001,           1.
      8, 0.0500000007,           1.
      9,           0.,           1.
     10,  0.400000006,  0.949999988
     11,  0.349999994,  0.949999988
     12,  0.300000012,  0.949999988
     13,         0.25,  0.949999988
     14,  0.200000003,  0.949999988
     15,  0.150000006,  0.949999988
     16,  0.100000001,  0.949999988
     17, 0.0500000007,  0.949999988
     18,           0.,  0.949999988
     19,  0.400000006,  0.899999976
     20,  0.349999994,  0.899999976
** ... 79 like lines cut
*Element, type=CPS4R
 1,  1,  2, 11, 10
 2,  2,  3, 12, 11
 3,  3,  4, 13, 12
 4,  4,  5, 14, 13
 5,  5,  6, 15, 14
 6,  6,  7, 16, 15
 7,  7,  8, 17, 16
 8,  8,  9, 18, 17
 9, 10, 11, 20, 19
10, 11, 12, 21, 20
11, 12, 13, 22, 21
12, 13, 14, 23, 22
13, 14, 15, 24, 23
14, 15, 16, 25, 24
15, 16, 17, 26, 25
16, 17, 18, 27, 26
17, 19, 20, 29, 28
18, 20, 21, 30, 29
19, 21, 22, 31, 30
20, 22, 23, 32, 31
** ... 60 like lines cut
*Nset, nset=Set-1, generate
  1,  99,   1
*Elset, elset=Set-1, generate
  1,  80,   1
*Nset, nset=Set-top-traverse-selection, generate
 1,  9,  1
*Elset, elset=Set-top-traverse-selection, generate
 1,  8,  1
** Section: Section-Traverse-
*Solid Section, elset=Set-1, material=traverse
,
*End Part
**  
**
** ASSEMBLY
**
*Assembly, name=Assembly
**  
*Instance, name=Ballast_Layer-1, part=Ballast_Layer
*End Instance
**  
*Instance, name=Concrete_Slab-1, part=Concrete_Slab
*End Instance
**  
*Instance, name=Substrate_Layer-1, part=Substrate_Layer
*End Instance
**  
*Instance, name=Substraye_Layer_2-1, part=Substraye_Layer_2
*End Instance
**  
*Instance, name=rail-1, part=rail
*End Instance
**  
*Instance, name=traverse-1, part=traverse
          0.,          3.5,           0.
*End Instance
**  
*Instance, name=traverse-1-lin-2-1, part=traverse
         0.6,          3.5,           0.
*End Instance
**  
*Instance, name=traverse-1-lin-3-1, part=traverse
         1.2,          3.5,           0.
*End Instance
**  
*Instance, name=traverse-1-lin-4-1, part=traverse
         1.8,          3.5,           0.
*End Instance
**  
*Instance, name=traverse-1-lin-5-1, part=traverse
         2.4,          3.5,           0.
*End Instance
**  
*Instance, name=traverse-1-lin-6-1, part=traverse
          3.,          3.5,           0.
*End Instance
**  
*Instance, name=traverse-1-lin-7-1, part=traverse
         3.6,          3.5,           0.
*End Instance
**  
*Instance, name=traverse-1-lin-8-1, part=traverse
         4.2,          3.5,           0.
*End Instance
**  
*Instance, name=traverse-1-lin-9-1, part=traverse
         4.8,          3.5,           0.
*End Instance
**  
*Instance, name=traverse-1-lin-10-1, part=traverse
         5.4,          3.5,           0.
*End Instance
**  
*Instance, name=traverse-1-lin-11-1, part=traverse
          6.,          3.5,           0.
*End Instance
**  
*Instance, name=traverse-1-lin-12-1, part=traverse
         6.6,          3.5,           0.
*End Instance
**  
*Instance, name=traverse-1-lin-13-1, part=traverse
         7.2,          3.5,           0.
*End Instance
**  
*Instance, name=traverse-1-lin-14-1, part=traverse
         7.8,          3.5,           0.
*End Instance
**  
*Instance, name=traverse-1-lin-15-1, part=traverse
         8.4,          3.5,           0.
*End Instance
**  
*Instance, name=traverse-1-lin-16-1, part=traverse
          9.,          3.5,           0.
*End Instance
**  
*Instance, name=traverse-1-lin-17-1, part=traverse
         9.6,          3.5,           0.
*End Instance
**  
*Instance, name=traverse-1-lin-18-1, part=traverse
        10.2,          3.5,           0.
*End Instance
**  
*Instance, name=traverse-1-lin-19-1, part=traverse
        10.8,          3.5,           0.
*End Instance
**  
*Instance, name=traverse-1-lin-20-1, part=traverse
        11.4,          3.5,           0.
*End Instance
**  
*Instance, name=traverse-1-lin-21-1, part=traverse
         12.,          3.5,           0.
*End Instance
**  
*Instance, name=traverse-1-lin-22-1, part=traverse
        12.6,          3.5,           0.
*End Instance
**  
*Instance, name=traverse-1-lin-23-1, part=traverse
        13.2,          3.5,           0.
*End Instance
**  
*Instance, name=traverse-1-lin-24-1, part=traverse
        13.8,          3.5,           0.
*End Instance
**  
*Instance, name=traverse-1-lin-25-1, part=traverse
        14.4,          3.5,           0.
*End Instance
**  
*Instance, name=traverse-1-lin-26-1, part=traverse
         15.,          3.5,           0.
*End Instance
**  
*Instance, name=traverse-1-lin-27-1, part=traverse
        15.6,          3.5,           0.
*End Instance
**  
*Instance, name=traverse-1-lin-28-1, part=traverse
        16.2,          3.5,           0.
*End Instance
**  
*Instance, name=traverse-1-lin-29-1, part=traverse
        16.8,          3.5,           0.
*End Instance
**  
*Instance, name=traverse-1-lin-30-1, part=traverse
        17.4,          3.5,           0.
*End Instance
**  
*Instance, name=traverse-1-lin-31-1, part=traverse
         18.,          3.5,           0.
*End Instance
**  
*Instance, name=traverse-1-lin-32-1, part=traverse
        18.6,          3.5,           0.
*End Instance
**  
*Instance, name=traverse-1-lin-33-1, part=traverse
        19.2,          3.5,           0.
*End Instance
**  
*Instance, name=traverse-1-lin-34-1, part=traverse
        19.8,          3.5,           0.
*End Instance
**  
*Instance, name=traverse-1-lin-35-1, part=traverse
        20.4,          3.5,           0.
*End Instance
**  
*Instance, name=traverse-1-lin-36-1, part=traverse
         21.,          3.5,           0.
*End Instance
**  
*Instance, name=traverse-1-lin-37-1, part=traverse
        21.6,          3.5,           0.
*End Instance
**  
*Instance, name=traverse-1-lin-38-1, part=traverse
        22.2,          3.5,           0.
*End Instance
**  
*Instance, name=traverse-1-lin-39-1, part=traverse
        22.8,          3.5,           0.
*End Instance
**  
*Instance, name=traverse-1-lin-40-1, part=traverse
        23.4,          3.5,           0.
*End Instance
**  
*Instance, name=traverse-1-lin-41-1, part=traverse
         24.,          3.5,           0.
*End Instance
**  
*Instance, name=traverse-1-lin-42-1, part=traverse
        24.6,          3.5,           0.
*End Instance
**  
*Instance, name=traverse-1-lin-43-1, part=traverse
        25.2,          3.5,           0.
*End Instance
**  
*Instance, name=traverse-1-lin-44-1, part=traverse
        25.8,          3.5,           0.
*End Instance
**  
*Instance, name=traverse-1-lin-45-1, part=traverse
        26.4,          3.5,           0.
*End Instance
**  
*Instance, name=traverse-1-lin-46-1, part=traverse
         27.,          3.5,           0.
*End Instance
**  
*Instance, name=traverse-1-lin-47-1, part=traverse
        27.6,          3.5,           0.
*End Instance
**  
*Instance, name=traverse-1-lin-48-1, part=traverse
        28.2,          3.5,           0.
*End Instance
**  
*Instance, name=traverse-1-lin-49-1, part=traverse
        28.8,          3.5,           0.
*End Instance
**  
*Instance, name=traverse-1-lin-50-1, part=traverse
        29.4,          3.5,           0.
*End Instance
**  
*Instance, name=traverse-1-lin-51-1, part=traverse
         30.,          3.5,           0.
*End Instance
**  
*Instance, name=traverse-1-lin-52-1, part=traverse
        30.6,          3.5,           0.
*End Instance
**  
*Instance, name=traverse-1-lin-53-1, part=traverse
        31.2,          3.5,           0.
*End Instance
**  
*Instance, name=traverse-1-lin-54-1, part=traverse
        31.8,          3.5,           0.
*End Instance
**  
*Instance, name=traverse-1-lin-55-1, part=traverse
        32.4,          3.5,           0.
*End Instance
**  
*Instance, name=traverse-1-lin-56-1, part=traverse
         33.,          3.5,           0.
*End Instance
**  
*Instance, name=traverse-1-lin-57-1, part=traverse
        33.6,          3.5,           0.
*End Instance
**  
*Instance, name=traverse-1-lin-58-1, part=traverse
        34.2,          3.5,           0.
*End Instance
**  
*Instance, name=traverse-1-lin-59-1, part=traverse
        34.8,          3.5,           0.
*End Instance
**  
*Instance, name=traverse-1-lin-60-1, part=traverse
        35.4,          3.5,           0.
*End Instance
**  
*Instance, name=traverse-1-lin-61-1, part=traverse
         36.,          3.5,           0.
*End Instance
**  
*Instance, name=traverse-1-lin-62-1, part=traverse
        36.6,          3.5,           0.
*End Instance
**  
*Instance, name=traverse-1-lin-63-1, part=traverse
        37.2,          3.5,           0.
*End Instance
**  
*Instance, name=traverse-1-lin-64-1, part=traverse
        37.8,          3.5,           0.
*End Instance
**  
*Instance, name=traverse-1-lin-65-1, part=traverse
        38.4,          3.5,           0.
*End Instance
**  
*Instance, name=traverse-1-lin-66-1, part=traverse
         39.,          3.5,           0.
*End Instance
**  
*Instance, name=traverse-1-lin-67-1, part=traverse
        39.6,          3.5,           0.
*End Instance
**  
*Instance, name=traverse-1-lin-68-1, part=traverse
        40.2,          3.5,           0.
*End Instance
**  
*Instance, name=traverse-1-lin-69-1, part=traverse
        40.8,          3.5,           0.
*End Instance
**  
*Instance, name=traverse-1-lin-70-1, part=traverse
        41.4,          3.5,           0.
*End Instance
**  
*Instance, name=traverse-1-lin-71-1, part=traverse
         42.,          3.5,           0.
*End Instance
**  
*Instance, name=traverse-1-lin-72-1, part=traverse
        42.6,          3.5,           0.
*End Instance
**  
*Instance, name=traverse-1-lin-73-1, part=traverse
        43.2,          3.5,           0.
*End Instance
**  
*Instance, name=traverse-1-lin-74-1, part=traverse
        43.8,          3.5,           0.
*End Instance
**  
*Instance, name=traverse-1-lin-75-1, part=traverse
        44.4,          3.5,           0.
*End Instance
**  
*Instance, name=traverse-1-lin-76-1, part=traverse
         45.,          3.5,           0.
*End Instance
**  
*Instance, name=traverse-1-lin-77-1, part=traverse
        45.6,          3.5,           0.
*End Instance
**  
*Instance, name=traverse-1-lin-78-1, part=traverse
        46.2,          3.5,           0.
*End Instance
**  
*Instance, name=traverse-1-lin-79-1, part=traverse
        46.8,          3.5,           0.
*End Instance
**  
*Instance, name=traverse-1-lin-80-1, part=traverse
        47.4,          3.5,           0.
*End Instance
**  
*Instance, name=traverse-1-lin-81-1, part=traverse
         48.,          3.5,           0.
*End Instance
**  
*Instance, name=traverse-1-lin-82-1, part=traverse
        48.6,          3.5,           0.
*End Instance
**  
*Instance, name=traverse-1-lin-83-1, part=traverse
        49.2,          3.5,           0.
*End Instance
**  
*Instance, name=traverse-1-lin-84-1, part=traverse
        49.8,          3.5,           0.
*End Instance
**  
*Instance, name=traverse-1-lin-85-1, part=traverse
        50.4,          3.5,           0.
*End Instance
**  
*Instance, name=traverse-1-lin-86-1, part=traverse
         51.,          3.5,           0.
*End Instance
**  
*Instance, name=traverse-1-lin-87-1, part=traverse
        51.6,          3.5,           0.
*End Instance
**  
*Instance, name=traverse-1-lin-88-1, part=traverse
        52.2,          3.5,           0.
*End Instance
**  
*Instance, name=traverse-1-lin-89-1, part=traverse
        52.8,          3.5,           0.
*End Instance
**  
*Instance, name=traverse-1-lin-90-1, part=traverse
        53.4,          3.5,           0.
*End Instance
**  
*Instance, name=traverse-1-lin-91-1, part=traverse
         54.,          3.5,           0.
*End Instance
**  
*Instance, name=traverse-1-lin-92-1, part=traverse
        54.6,          3.5,           0.
*End Instance
**  
*Instance, name=traverse-1-lin-93-1, part=traverse
        55.2,          3.5,           0.
*End Instance
**  
*Instance, name=traverse-1-lin-94-1, part=traverse
        55.8,          3.5,           0.
*End Instance
**  
*Instance, name=traverse-1-lin-95-1, part=traverse
        56.4,          3.5,           0.
*End Instance
**  
*Instance, name=traverse-1-lin-96-1, part=traverse
         57.,          3.5,           0.
*End Instance
**  
*Instance, name=traverse-1-lin-97-1, part=traverse
        57.6,          3.5,           0.
*End Instance
**  
*Instance, name=traverse-1-lin-98-1, part=traverse
        58.2,          3.5,           0.
*End Instance
**  
*Instance, name=traverse-1-lin-99-1, part=traverse
        58.8,          3.5,           0.
*End Instance
**  
*Instance, name=traverse-1-lin-100-1, part=traverse
        59.4,          3.5,           0.
*End Instance
**  
*Instance, name=traverse-1-lin-101-1, part=traverse
         60.,          3.5,           0.
*End Instance
**  
*Instance, name=traverse-1-lin-102-1, part=traverse
        60.6,          3.5,           0.
*End Instance
**  
*Instance, name=traverse-1-lin-103-1, part=traverse
        61.2,          3.5,           0.
*End Instance
**  
*Instance, name=traverse-1-lin-104-1, part=traverse
        61.8,          3.5,           0.
*End Instance
**  
*Instance, name=traverse-1-lin-105-1, part=traverse
        62.4,          3.5,           0.
*End Instance
**  
*Instance, name=traverse-1-lin-106-1, part=traverse
         63.,          3.5,           0.
*End Instance
**  
*Instance, name=traverse-1-lin-107-1, part=traverse
        63.6,          3.5,           0.
*End Instance
**  
*Instance, name=traverse-1-lin-108-1, part=traverse
        64.2,          3.5,           0.
*End Instance
**  
*Instance, name=traverse-1-lin-109-1, part=traverse
        64.8,          3.5,           0.
*End Instance
**  
*Instance, name=traverse-1-lin-110-1, part=traverse
        65.4,          3.5,           0.
*End Instance
**  
*Instance, name=traverse-1-lin-111-1, part=traverse
         66.,          3.5,           0.
*End Instance
**  
*Instance, name=traverse-1-lin-112-1, part=traverse
        66.6,          3.5,           0.
*End Instance
**  
*Instance, name=traverse-1-lin-113-1, part=traverse
        67.2,          3.5,           0.
*End Instance
**  
*Instance, name=traverse-1-lin-114-1, part=traverse
        67.8,          3.5,           0.
*End Instance
**  
*Instance, name=traverse-1-lin-115-1, part=traverse
        68.4,          3.5,           0.
*End Instance
**  
*Instance, name=traverse-1-lin-116-1, part=traverse
         69.,          3.5,           0.
*End Instance
**  
*Instance, name=traverse-1-lin-117-1, part=traverse
        69.6,          3.5,           0.
*End Instance
**  
*Instance, name=traverse-1-lin-118-1, part=traverse
        70.2,          3.5,           0.
*End Instance
**  
*Instance, name=traverse-1-lin-119-1, part=traverse
        70.8,          3.5,           0.
*End Instance
**  
*Instance, name=traverse-1-lin-120-1, part=traverse
        71.4,          3.5,           0.
*End Instance
**  
*Instance, name=traverse-1-lin-121-1, part=traverse
         72.,          3.5,           0.
*End Instance
**  
*Instance, name=traverse-1-lin-122-1, part=traverse
        72.6,          3.5,           0.
*End Instance
**  
*Instance, name=traverse-1-lin-123-1, part=traverse
        73.2,          3.5,           0.
*End Instance
**  
*Instance, name=traverse-1-lin-124-1, part=traverse
        73.8,          3.5,           0.
*End Instance
**  
*Instance, name=traverse-1-lin-125-1, part=traverse
        74.4,          3.5,           0.
*End Instance
**  
*Instance, name=traverse-1-lin-126-1, part=traverse
         75.,          3.5,           0.
*End Instance
**  
*Instance, name=traverse-1-lin-127-1, part=traverse
        75.6,          3.5,           0.
*End Instance
**  
*Instance, name=traverse-1-lin-128-1, part=traverse
        76.2,          3.5,           0.
*End Instance
**  
*Instance, name=traverse-1-lin-129-1, part=traverse
        76.8,          3.5,           0.
*End Instance
**  
*Instance, name=traverse-1-lin-130-1, part=traverse
        77.4,          3.5,           0.
*End Instance
**  
*Instance, name=traverse-1-lin-131-1, part=traverse
         78.,          3.5,           0.
*End Instance
**  
*Instance, name=traverse-1-lin-132-1, part=traverse
        78.6,          3.5,           0.
*End Instance
**  
*Instance, name=traverse-1-lin-133-1, part=traverse
        79.2,          3.5,           0.
*End Instance
**  
*Instance, name=traverse-1-lin-134-1, part=traverse
        79.8,          3.5,           0.
*End Instance
**  
*Instance, name=traverse-1-lin-135-1, part=traverse
        80.4,          3.5,           0.
*End Instance
**  
*Instance, name=traverse-1-lin-136-1, part=traverse
         81.,          3.5,           0.
*End Instance
**  
*Instance, name=traverse-1-lin-137-1, part=traverse
        81.6,          3.5,           0.
*End Instance
**  
*Instance, name=traverse-1-lin-138-1, part=traverse
        82.2,          3.5,           0.
*End Instance
**  
*Instance, name=traverse-1-lin-139-1, part=traverse
        82.8,          3.5,           0.
*End Instance
**  
*Instance, name=traverse-1-lin-140-1, part=traverse
        83.4,          3.5,           0.
*End Instance
**  
*Instance, name=traverse-1-lin-141-1, part=traverse
         84.,          3.5,           0.
*End Instance
**  
*Instance, name=traverse-1-lin-142-1, part=traverse
        84.6,          3.5,           0.
*End Instance
**  
*Instance, name=traverse-1-lin-143-1, part=traverse
        85.2,          3.5,           0.
*End Instance
**  
*Instance, name=traverse-1-lin-144-1, part=traverse
        85.8,          3.5,           0.
*End Instance
**  
*Instance, name=traverse-1-lin-145-1, part=traverse
        86.4,          3.5,           0.
*End Instance
**  
*Instance, name=traverse-1-lin-146-1, part=traverse
         87.,          3.5,           0.
*End Instance
**  
*Instance, name=traverse-1-lin-147-1, part=traverse
        87.6,          3.5,           0.
*End Instance
**  
*Instance, name=traverse-1-lin-148-1, part=traverse
        88.2,          3.5,           0.
*End Instance
**  
*Instance, name=traverse-1-lin-149-1, part=traverse
        88.8,          3.5,           0.
*End Instance
**  
*Instance, name=traverse-1-lin-150-1, part=traverse
        89.4,          3.5,           0.
*End Instance
**  
*Instance, name=traverse-1-lin-151-1, part=traverse
         90.,          3.5,           0.
*End Instance
**  
*Instance, name=traverse-1-lin-152-1, part=traverse
        90.6,          3.5,           0.
*End Instance
**  
*Instance, name=traverse-1-lin-153-1, part=traverse
        91.2,          3.5,           0.
*End Instance
**  
*Instance, name=traverse-1-lin-154-1, part=traverse
        91.8,          3.5,           0.
*End Instance
**  
*Instance, name=traverse-1-lin-155-1, part=traverse
        92.4,          3.5,           0.
*End Instance
**  
*Instance, name=traverse-1-lin-156-1, part=traverse
         93.,          3.5,           0.
*End Instance
**  
*Instance, name=traverse-1-lin-157-1, part=traverse
        93.6,          3.5,           0.
*End Instance
**  
*Instance, name=traverse-1-lin-158-1, part=traverse
        94.2,          3.5,           0.
*End Instance
**  
*Instance, name=traverse-1-lin-159-1, part=traverse
        94.8,          3.5,           0.
*End Instance
**  
*Instance, name=traverse-1-lin-160-1, part=traverse
        95.4,          3.5,           0.
*End Instance
**  
*Instance, name=traverse-1-lin-161-1, part=traverse
         96.,          3.5,           0.
*End Instance
**  
*Instance, name=traverse-1-lin-162-1, part=traverse
        96.6,          3.5,           0.
*End Instance
**  
*Instance, name=traverse-1-lin-163-1, part=traverse
        97.2,          3.5,           0.
*End Instance
**  
*Instance, name=traverse-1-lin-164-1, part=traverse
        97.8,          3.5,           0.
*End Instance
**  
*Instance, name=traverse-1-lin-165-1, part=traverse
        98.4,          3.5,           0.
*End Instance
**  
*Instance, name=traverse-1-lin-166-1, part=traverse
         99.,          3.5,           0.
*End Instance
**  
*Instance, name=traverse-1-lin-167-1, part=traverse
        99.6,          3.5,           0.
*End Instance
**  
*Instance, name=traverse-1-lin-168-1, part=traverse
       100.2,          3.5,           0.
*End Instance
**  
*Instance, name=traverse-1-lin-169-1, part=traverse
       100.8,          3.5,           0.
*End Instance
**  
*Instance, name=traverse-1-lin-170-1, part=traverse
       101.4,          3.5,           0.
*End Instance
**  
*Instance, name=traverse-1-lin-171-1, part=traverse
        102.,          3.5,           0.
*End Instance
**  
*Instance, name=traverse-1-lin-172-1, part=traverse
       102.6,          3.5,           0.
*End Instance
**  
*Instance, name=traverse-1-lin-173-1, part=traverse
       103.2,          3.5,           0.
*End Instance
**  
*Instance, name=traverse-1-lin-174-1, part=traverse
       103.8,          3.5,           0.
*End Instance
**  
*Instance, name=traverse-1-lin-175-1, part=traverse
       104.4,          3.5,           0.
*End Instance
**  
*Instance, name=traverse-1-lin-176-1, part=traverse
        105.,          3.5,           0.
*End Instance
**  
*Instance, name=traverse-1-lin-177-1, part=traverse
       105.6,          3.5,           0.
*End Instance
**  
*Instance, name=traverse-1-lin-178-1, part=traverse
       106.2,          3.5,           0.
*End Instance
**  
*Instance, name=traverse-1-lin-179-1, part=traverse
       106.8,          3.5,           0.
*End Instance
**  
*Instance, name=traverse-1-lin-180-1, part=traverse
       107.4,          3.5,           0.
*End Instance
**  
*Instance, name=traverse-1-lin-181-1, part=traverse
        108.,          3.5,           0.
*End Instance
**  
*Instance, name=traverse-1-lin-182-1, part=traverse
       108.6,          3.5,           0.
*End Instance
**  
*Instance, name=traverse-1-lin-183-1, part=traverse
       109.2,          3.5,           0.
*End Instance
**  
*Instance, name=traverse-1-lin-184-1, part=traverse
       109.8,          3.5,           0.
*End Instance
**  
*Instance, name=traverse-1-lin-185-1, part=traverse
       110.4,          3.5,           0.
*End Instance
**  
*Instance, name=traverse-1-lin-186-1, part=traverse
        111.,          3.5,           0.
*End Instance
**  
*Instance, name=traverse-1-lin-187-1, part=traverse
       111.6,          3.5,           0.
*End Instance
**  
*Instance, name=traverse-1-lin-188-1, part=traverse
       112.2,          3.5,           0.
*End Instance
**  
*Instance, name=traverse-1-lin-189-1, part=traverse
       112.8,          3.5,           0.
*End Instance
**  
*Instance, name=traverse-1-lin-190-1, part=traverse
       113.4,          3.5,           0.
*End Instance
**  
*Instance, name=traverse-1-lin-191-1, part=traverse
        114.,          3.5,           0.
*End Instance
**  
*Instance, name=traverse-1-lin-192-1, part=traverse
       114.6,          3.5,           0.
*End Instance
**  
*Instance, name=traverse-1-lin-193-1, part=traverse
       115.2,          3.5,           0.
*End Instance
**  
*Instance, name=traverse-1-lin-194-1, part=traverse
       115.8,          3.5,           0.
*End Instance
**  
*Instance, name=traverse-1-lin-195-1, part=traverse
       116.4,          3.5,           0.
*End Instance
**  
*Instance, name=traverse-1-lin-196-1, part=traverse
        117.,          3.5,           0.
*End Instance
**  
*Instance, name=traverse-1-lin-197-1, part=traverse
       117.6,          3.5,           0.
*End Instance
**  
*Instance, name=traverse-1-lin-198-1, part=traverse
       118.2,          3.5,           0.
*End Instance
**  
*Instance, name=traverse-1-lin-199-1, part=traverse
       118.8,          3.5,           0.
*End Instance
**  
*Instance, name=traverse-1-lin-200-1, part=traverse
       119.4,          3.5,           0.
*End Instance
**  
*Instance, name=traverse-1-lin-201-1, part=traverse
        120.,          3.5,           0.
*End Instance
**  
*Instance, name=traverse-1-lin-202-1, part=traverse
       120.6,          3.5,           0.
*End Instance
**  
*Instance, name=traverse-1-lin-203-1, part=traverse
       121.2,          3.5,           0.
*End Instance
**  
*Instance, name=traverse-1-lin-204-1, part=traverse
       121.8,          3.5,           0.
*End Instance
**  
*Instance, name=traverse-1-lin-205-1, part=traverse
       122.4,          3.5,           0.
*End Instance
**  
*Instance, name=traverse-1-lin-206-1, part=traverse
        123.,          3.5,           0.
*End Instance
**  
*Instance, name=traverse-1-lin-207-1, part=traverse
       123.6,          3.5,           0.
*End Instance
**  
*Instance, name=traverse-1-lin-208-1, part=traverse
       124.2,          3.5,           0.
*End Instance
**  
*Instance, name=traverse-1-lin-209-1, part=traverse
       124.8,          3.5,           0.
*End Instance
**  
*Instance, name=traverse-1-lin-210-1, part=traverse
       125.4,          3.5,           0.
*End Instance
**  
*Instance, name=traverse-1-lin-211-1, part=traverse
        126.,          3.5,           0.
*End Instance
**  
*Instance, name=traverse-1-lin-212-1, part=traverse
       126.6,          3.5,           0.
*End Instance
**  
*Instance, name=traverse-1-lin-213-1, part=traverse
       127.2,          3.5,           0.
*End Instance
**  
*Instance, name=traverse-1-lin-214-1, part=traverse
       127.8,          3.5,           0.
*End Instance
**  
*Instance, name=traverse-1-lin-215-1, part=traverse
       128.4,          3.5,           0.
*End Instance
**  
*Instance, name=traverse-1-lin-216-1, part=traverse
        129.,          3.5,           0.
*End Instance
**  
*Instance, name=traverse-1-lin-217-1, part=traverse
       129.6,          3.5,           0.
*End Instance
**  
*Instance, name=traverse-1-lin-218-1, part=traverse
       130.2,          3.5,           0.
*End Instance
**  
*Instance, name=traverse-1-lin-219-1, part=traverse
       130.8,          3.5,           0.
*End Instance
**  
*Instance, name=traverse-1-lin-220-1, part=traverse
       131.4,          3.5,           0.
*End Instance
**  
*Instance, name=traverse-1-lin-221-1, part=traverse
        132.,          3.5,           0.
*End Instance
**  
*Instance, name=traverse-1-lin-222-1, part=traverse
       132.6,          3.5,           0.
*End Instance
**  
*Instance, name=traverse-1-lin-223-1, part=traverse
       133.2,          3.5,           0.
*End Instance
**  
*Instance, name=traverse-1-lin-224-1, part=traverse
       133.8,          3.5,           0.
*End Instance
**  
*Instance, name=traverse-1-lin-225-1, part=traverse
       134.4,          3.5,           0.
*End Instance
**  
*Instance, name=traverse-1-lin-226-1, part=traverse
        135.,          3.5,           0.
*End Instance
**  
*Instance, name=traverse-1-lin-227-1, part=traverse
       135.6,          3.5,           0.
*End Instance
**  
*Instance, name=traverse-1-lin-228-1, part=traverse
       136.2,          3.5,           0.
*End Instance
**  
*Instance, name=traverse-1-lin-229-1, part=traverse
       136.8,          3.5,           0.
*End Instance
**  
*Instance, name=traverse-1-lin-230-1, part=traverse
       137.4,          3.5,           0.
*End Instance
**  
*Instance, name=traverse-1-lin-231-1, part=traverse
        138.,          3.5,           0.
*End Instance
**  
*Instance, name=traverse-1-lin-232-1, part=traverse
       138.6,          3.5,           0.
*End Instance
**  
*Instance, name=traverse-1-lin-233-1, part=traverse
       139.2,          3.5,           0.
*End Instance
**  
*Instance, name=traverse-1-lin-234-1, part=traverse
       139.8,          3.5,           0.
*End Instance
**  
*Instance, name=traverse-1-lin-235-1, part=traverse
       140.4,          3.5,           0.
*End Instance
**  
*Instance, name=traverse-1-lin-236-1, part=traverse
        141.,          3.5,           0.
*End Instance
**  
*Instance, name=traverse-1-lin-237-1, part=traverse
       141.6,          3.5,           0.
*End Instance
**  
*Instance, name=traverse-1-lin-238-1, part=traverse
       142.2,          3.5,           0.
*End Instance
**  
*Instance, name=traverse-1-lin-239-1, part=traverse
       142.8,          3.5,           0.
*End Instance
**  
*Instance, name=traverse-1-lin-240-1, part=traverse
       143.4,          3.5,           0.
*End Instance
**  
*Instance, name=traverse-1-lin-241-1, part=traverse
        144.,          3.5,           0.
*End Instance
**  
*Instance, name=traverse-1-lin-242-1, part=traverse
       144.6,          3.5,           0.
*End Instance
**  
*Instance, name=traverse-1-lin-243-1, part=traverse
       145.2,          3.5,           0.
*End Instance
**  
*Instance, name=traverse-1-lin-244-1, part=traverse
       145.8,          3.5,           0.
*End Instance
**  
*Instance, name=traverse-1-lin-245-1, part=traverse
       146.4,          3.5,           0.
*End Instance
**  
*Instance, name=traverse-1-lin-246-1, part=traverse
        147.,          3.5,           0.
*End Instance
**  
*Instance, name=traverse-1-lin-247-1, part=traverse
       147.6,          3.5,           0.
*End Instance
**  
*Instance, name=traverse-1-lin-248-1, part=traverse
       148.2,          3.5,           0.
*End Instance
**  
*Instance, name=traverse-1-lin-249-1, part=traverse
       148.8,          3.5,           0.
*End Instance
**  
*Instance, name=traverse-1-lin-250-1, part=traverse
       149.4,          3.5,           0.
*End Instance
**  
*Instance, name=traverse-1-lin-251-1, part=traverse
        150.,          3.5,           0.
*End Instance
**  
*Instance, name=traverse-1-lin-252-1, part=traverse
       150.6,          3.5,           0.
*End Instance
**  
*Instance, name=traverse-1-lin-253-1, part=traverse
       151.2,          3.5,           0.
*End Instance
**  
*Instance, name=traverse-1-lin-254-1, part=traverse
       151.8,          3.5,           0.
*End Instance
**  
*Instance, name=traverse-1-lin-255-1, part=traverse
       152.4,          3.5,           0.
*End Instance
**  
*Instance, name=traverse-1-lin-256-1, part=traverse
        153.,          3.5,           0.
*End Instance
**  
*Instance, name=traverse-1-lin-257-1, part=traverse
       153.6,          3.5,           0.
*End Instance
**  
*Instance, name=traverse-1-lin-258-1, part=traverse
       154.2,          3.5,           0.
*End Instance
**  
*Instance, name=traverse-1-lin-259-1, part=traverse
       154.8,          3.5,           0.
*End Instance
**  
*Instance, name=traverse-1-lin-260-1, part=traverse
       155.4,          3.5,           0.
*End Instance
**  
*Instance, name=traverse-1-lin-261-1, part=traverse
        156.,          3.5,           0.
*End Instance
**  
*Instance, name=traverse-1-lin-262-1, part=traverse
       156.6,          3.5,           0.
*End Instance
**  
*Instance, name=traverse-1-lin-263-1, part=traverse
       157.2,          3.5,           0.
*End Instance
**  
*Instance, name=traverse-1-lin-264-1, part=traverse
       157.8,          3.5,           0.
*End Instance
**  
*Instance, name=traverse-1-lin-265-1, part=traverse
       158.4,          3.5,           0.
*End Instance
**  
*Instance, name=traverse-1-lin-266-1, part=traverse
        159.,          3.5,           0.
*End Instance
**  
*Instance, name=traverse-1-lin-267-1, part=traverse
       159.6,          3.5,           0.
*End Instance
**  
*Instance, name=traverse-1-lin-268-1, part=traverse
       160.2,          3.5,           0.
*End Instance
**  
*Instance, name=traverse-1-lin-269-1, part=traverse
       160.8,          3.5,           0.
*End Instance
**  
*Instance, name=traverse-1-lin-270-1, part=traverse
       161.4,          3.5,           0.
*End Instance
**  
*Instance, name=traverse-1-lin-271-1, part=traverse
        162.,          3.5,           0.
*End Instance
**  
*Instance, name=traverse-1-lin-272-1, part=traverse
       162.6,          3.5,           0.
*End Instance
**  
*Instance, name=traverse-1-lin-273-1, part=traverse
       163.2,          3.5,           0.
*End Instance
**  
*Instance, name=traverse-1-lin-274-1, part=traverse
       163.8,          3.5,           0.
*End Instance
**  
*Instance, name=traverse-1-lin-275-1, part=traverse
       164.4,          3.5,           0.
*End Instance
**  
*Instance, name=traverse-1-lin-276-1, part=traverse
        165.,          3.5,           0.
*End Instance
**  
*Instance, name=traverse-1-lin-277-1, part=traverse
       165.6,          3.5,           0.
*End Instance
**  
*Instance, name=traverse-1-lin-278-1, part=traverse
       166.2,          3.5,           0.
*End Instance
**  
*Instance, name=traverse-1-lin-279-1, part=traverse
       166.8,          3.5,           0.
*End Instance
**  
*Instance, name=traverse-1-lin-280-1, part=traverse
       167.4,          3.5,           0.
*End Instance
**  
*Instance, name=traverse-1-lin-281-1, part=traverse
        168.,          3.5,           0.
*End Instance
**  
*Instance, name=traverse-1-lin-282-1, part=traverse
       168.6,          3.5,           0.
*End Instance
**  
*Instance, name=traverse-1-lin-283-1, part=traverse
       169.2,          3.5,           0.
*End Instance
**  
*Instance, name=traverse-1-lin-284-1, part=traverse
       169.8,          3.5,           0.
*End Instance
**  
*Instance, name=traverse-1-lin-285-1, part=traverse
       170.4,          3.5,           0.
*End Instance
**  
*Instance, name=traverse-1-lin-286-1, part=traverse
        171.,          3.5,           0.
*End Instance
**  
*Instance, name=traverse-1-lin-287-1, part=traverse
       171.6,          3.5,           0.
*End Instance
**  
*Instance, name=traverse-1-lin-288-1, part=traverse
       172.2,          3.5,           0.
*End Instance
**  
*Instance, name=traverse-1-lin-289-1, part=traverse
       172.8,          3.5,           0.
*End Instance
**  
*Instance, name=traverse-1-lin-290-1, part=traverse
       173.4,          3.5,           0.
*End Instance
**  
*Instance, name=traverse-1-lin-291-1, part=traverse
        174.,          3.5,           0.
*End Instance
**  
*Instance, name=traverse-1-lin-292-1, part=traverse
       174.6,          3.5,           0.
*End Instance
**  
*Instance, name=traverse-1-lin-293-1, part=traverse
       175.2,          3.5,           0.
*End Instance
**  
*Instance, name=traverse-1-lin-294-1, part=traverse
       175.8,          3.5,           0.
*End Instance
**  
*Instance, name=traverse-1-lin-295-1, part=traverse
       176.4,          3.5,           0.
*End Instance
**  
*Instance, name=traverse-1-lin-296-1, part=traverse
        177.,          3.5,           0.
*End Instance
**  
*Instance, name=traverse-1-lin-297-1, part=traverse
       177.6,          3.5,           0.
*End Instance
**  
*Instance, name=traverse-1-lin-298-1, part=traverse
       178.2,          3.5,           0.
*End Instance
**  
*Instance, name=traverse-1-lin-299-1, part=traverse
       178.8,          3.5,           0.
*End Instance
**  
*Instance, name=traverse-1-lin-300-1, part=traverse
       179.4,          3.5,           0.
*End Instance
**  
*Instance, name=traverse-1-lin-301-1, part=traverse
        180.,          3.5,           0.
*End Instance
**  
*Instance, name=traverse-1-lin-302-1, part=traverse
       180.6,          3.5,           0.
*End Instance
**  
*Instance, name=traverse-1-lin-303-1, part=traverse
       181.2,          3.5,           0.
*End Instance
**  
*Instance, name=traverse-1-lin-304-1, part=traverse
       181.8,          3.5,           0.
*End Instance
**  
*Instance, name=traverse-1-lin-305-1, part=traverse
       182.4,          3.5,           0.
*End Instance
**  
*Instance, name=traverse-1-lin-306-1, part=traverse
        183.,          3.5,           0.
*End Instance
**  
*Instance, name=traverse-1-lin-307-1, part=traverse
       183.6,          3.5,           0.
*End Instance
**  
*Instance, name=traverse-1-lin-308-1, part=traverse
       184.2,          3.5,           0.
*End Instance
**  
*Instance, name=traverse-1-lin-309-1, part=traverse
       184.8,          3.5,           0.
*End Instance
**  
*Instance, name=traverse-1-lin-310-1, part=traverse
       185.4,          3.5,           0.
*End Instance
**  
*Instance, name=traverse-1-lin-311-1, part=traverse
        186.,          3.5,           0.
*End Instance
**  
*Instance, name=traverse-1-lin-312-1, part=traverse
       186.6,          3.5,           0.
*End Instance
**  
*Instance, name=traverse-1-lin-313-1, part=traverse
       187.2,          3.5,           0.
*End Instance
**  
*Instance, name=traverse-1-lin-314-1, part=traverse
       187.8,          3.5,           0.
*End Instance
**  
*Instance, name=traverse-1-lin-315-1, part=traverse
       188.4,          3.5,           0.
*End Instance
**  
*Instance, name=traverse-1-lin-316-1, part=traverse
        189.,          3.5,           0.
*End Instance
**  
*Instance, name=traverse-1-lin-317-1, part=traverse
       189.6,          3.5,           0.
*End Instance
**  
*Instance, name=traverse-1-lin-318-1, part=traverse
       190.2,          3.5,           0.
*End Instance
**  
*Instance, name=traverse-1-lin-319-1, part=traverse
       190.8,          3.5,           0.
*End Instance
**  
*Instance, name=traverse-1-lin-320-1, part=traverse
       191.4,          3.5,           0.
*End Instance
**  
*Instance, name=traverse-1-lin-321-1, part=traverse
        192.,          3.5,           0.
*End Instance
**  
*Instance, name=traverse-1-lin-322-1, part=traverse
       192.6,          3.5,           0.
*End Instance
**  
*Instance, name=traverse-1-lin-323-1, part=traverse
       193.2,          3.5,           0.
*End Instance
**  
*Instance, name=traverse-1-lin-324-1, part=traverse
       193.8,          3.5,           0.
*End Instance
**  
*Instance, name=traverse-1-lin-325-1, part=traverse
       194.4,          3.5,           0.
*End Instance
**  
*Instance, name=traverse-1-lin-326-1, part=traverse
        195.,          3.5,           0.
*End Instance
**  
*Instance, name=traverse-1-lin-327-1, part=traverse
       195.6,          3.5,           0.
*End Instance
**  
*Instance, name=traverse-1-lin-328-1, part=traverse
       196.2,          3.5,           0.
*End Instance
**  
*Instance, name=traverse-1-lin-329-1, part=traverse
       196.8,          3.5,           0.
*End Instance
**  
*Instance, name=traverse-1-lin-330-1, part=traverse
       197.4,          3.5,           0.
*End Instance
**  
*Instance, name=traverse-1-lin-331-1, part=traverse
        198.,          3.5,           0.
*End Instance
**  
*Instance, name=traverse-1-lin-332-1, part=traverse
       198.6,          3.5,           0.
*End Instance
**  
*Instance, name=traverse-1-lin-333-1, part=traverse
       199.2,          3.5,           0.
*End Instance
**  
*Nset, nset=Set-5, instance=Concrete_Slab-1, generate
  1,  42,   1
*Elset, elset=Set-5, instance=Concrete_Slab-1, generate
  1,  20,   1
*Nset, nset=Set-6, instance=Ballast_Layer-1, generate
  1,  42,   1
*Elset, elset=Set-6, instance=Ballast_Layer-1, generate
  1,  20,   1
*Nset, nset=Set-7, instance=Concrete_Slab-1, generate
  1,  21,   1
*Elset, elset=Set-7, instance=Concrete_Slab-1, generate
  1,  20,   1
*Nset, nset=Set-19, instance=Ballast_Layer-1, generate
  1,  42,   1
*Elset, elset=Set-19, instance=Ballast_Layer-1, generate
  1,  20,   1
*Nset, nset=Set-Bottom-Side, instance=Substrate_Layer-1, generate
  1,  21,   1
*Elset, elset=Set-Bottom-Side, instance=Substrate_Layer-1, generate
  1,  20,   1
*Nset, nset=Set-Left-Side, instance=Concrete_Slab-1
  1, 22
*Nset, nset=Set-Left-Side, instance=Substrate_Layer-1
  1, 22
*Nset, nset=Set-Left-Side, instance=Substraye_Layer_2-1
  1, 22
*Nset, nset=Set-Left-Side, instance=traverse-1, generate
  9,  99,   9
*Nset, nset=Set-Left-Side, instance=rail-1
   1, 202
*Elset, elset=Set-Left-Side, instance=Concrete_Slab-1
 1,
*Elset, elset=Set-Left-Side, instance=Substrate_Layer-1
 1,
*Elset, elset=Set-Left-Side, instance=Substraye_Layer_2-1
 1,
*Elset, elset=Set-Left-Side, instance=traverse-1, generate
  8,  80,   8
*Elset, elset=Set-Left-Side, instance=rail-1
 1,
*Nset, nset=Set-Right-Side, instance=Ballast_Layer-1
 21, 42
*Nset, nset=Set-Right-Side, instance=Substrate_Layer-1
 21, 42
*Nset, nset=Set-Right-Side, instance=rail-1
 201, 402
*Elset, elset=Set-Right-Side, instance=Ballast_Layer-1
 20,
*Elset, elset=Set-Right-Side, instance=Substrate_Layer-1
 20,
*Elset, elset=Set-Right-Side, instance=rail-1
 200,
*Nset, nset=Set-ballast-x, instance=Ballast_Layer-1, generate
  1,  42,   1
*Elset, elset=Set-ballast-x, instance=Ballast_Layer-1, generate
  1,  20,   1
*Nset, nset=Set-bottom-ballast-x, instance=Ballast_Layer-1, generate
  1,  21,   1
*Elset, elset=Set-bottom-ballast-x, instance=Ballast_Layer-1, generate
  1,  20,   1
*Nset, nset=Set-bottom-concrete-x, instance=Concrete_Slab-1, generate
  1,  21,   1
*Elset, elset=Set-bottom-concrete-x, instance=Concrete_Slab-1, generate
  1,  20,   1
*Nset, nset=Set-bottom-concrete-xx, instance=Concrete_Slab-1, generate
  1,  21,   1
*Elset, elset=Set-bottom-concrete-xx, instance=Concrete_Slab-1, generate
  1,  20,   1
*Nset, nset=Set-bottom-rail, instance=rail-1, generate
   1,  201,    1
*Elset, elset=Set-bottom-rail, instance=rail-1, generate
   1,  200,    1
*Nset, nset=Set-bottom-rail-x, instance=rail-1, generate
   1,  201,    1
*Elset, elset=Set-bottom-rail-x, instance=rail-1, generate
   1,  200,    1
*Nset, nset=Set-concrete, instance=Concrete_Slab-1, generate
  1,  42,   1
*Elset, elset=Set-concrete, instance=Concrete_Slab-1, generate
  1,  20,   1
*Nset, nset=Set-lateral-concrete, instance=Concrete_Slab-1
 21, 42
*Elset, elset=Set-lateral-concrete, instance=Concrete_Slab-1
 20,
*Nset, nset=Set-rail-x, instance=rail-1, generate
   1,  402,    1
*Elset, elset=Set-rail-x, instance=rail-1, generate
   1,  200,    1
*Nset, nset=Set-top-ballast-x, instance=Ballast_Layer-1, generate
 22,  42,   1
*Elset, elset=Set-top-ballast-x, instance=Ballast_Layer-1, generate
  1,  20,   1
*Nset, nset=Set-top-concrete, instance=Concrete_Slab-1, generate
 22,  42,   1
*Elset, elset=Set-top-concrete, instance=Concrete_Slab-1, generate
  1,  20,   1
*Nset, nset=Set-top-rail, instance=rail-1, generate
 202,  402,    1
*Elset, elset=Set-top-rail, instance=rail-1, generate
   1,  200,    1
*Elset, elset=_Surf-Concrete-bottom_S1, internal, instance=Concrete_Slab-1, generate
  1,  20,   1
*Surface, type=ELEMENT, name=Surf-Concrete-bottom
_Surf-Concrete-bottom_S1, S1
*Elset, elset=_Surf-Concrete-top_S3, internal, instance=Concrete_Slab-1, generate
  1,  20,   1
*Surface, type=ELEMENT, name=Surf-Concrete-top
_Surf-Concrete-top_S3, S3
*Elset, elset=_Surf-ballast-bottom_S1, internal, instance=Ballast_Layer-1, generate
  1,  20,   1
*Surface, type=ELEMENT, name=Surf-ballast-bottom
_Surf-ballast-bottom_S1, S1
*Elset, elset=_Surf-ballast-top_S3, internal, instance=Ballast_Layer-1, generate
  1,  20,   1
*Surface, type=ELEMENT, name=Surf-ballast-top
_Surf-ballast-top_S3, S3
*Elset, elset=_Surf-rail-bottom_S1, internal, instance=rail-1, generate
   1,  200,    1
*Surface, type=ELEMENT, name=Surf-rail-bottom
_Surf-rail-bottom_S1, S1
*Elset, elset=_Surf-rail-top_S3, internal, instance=rail-1, generate
   1,  200,    1
*Surface, type=ELEMENT, name=Surf-rail-top
_Surf-rail-top_S3, S3
*Elset, elset=_Surf-traverse-top_S1, internal, instance=traverse-1, generate
 1,  8,  1
*Elset, elset=_Surf-traverse-top_S2, internal, instance=traverse-1, generate
  8,  80,   8
*Elset, elset=_Surf-traverse-top_S3, internal, instance=traverse-1, generate
 73,  80,   1
*Elset, elset=_Surf-traverse-top_S4, internal, instance=traverse-1, generate
  1,  73,   8
*Surface, type=ELEMENT, name=Surf-traverse-top
_Surf-traverse-top_S1, S1
_Surf-traverse-top_S2, S2
_Surf-traverse-top_S4, S4
_Surf-traverse-top_S3, S3
*End Assembly
*Amplitude, name=Amp-1
             0.,              0.,           0.007,            0.35,             0.2,             0.5
** 
** MATERIALS
** 
*Material, name=ballast
*Density
1900.,
*Elastic
 3e+08, 0.3
*Material, name=concrete
*Density
2500.,
*Elastic
 2.1e+10, 0.15
*Material, name=geocell
*Density
990.,
*Elastic
 2.1e+07, 0.41
*Material, name=soil
*Density
1950.,
*Elastic
 9.5e+07, 0.33
*Material, name=steel
*Density
7850.,
*Elastic
 2.1e+11, 0.2
*Material, name=traverse
*Density
2500.,
*Elastic
 2.9e+10, 0.2
** 
** INTERACTION PROPERTIES
** 
*Surface Interaction, name=IntProp-1
1.,
*Friction, slip tolerance=0.005
 0.35,
*Surface Behavior, pressure-overclosure=HARD
** 
** INTERACTIONS
** 
** Interaction: Int-1
*Contact Pair, interaction=IntProp-1, type=SURFACE TO SURFACE
Surf-traverse-top, Surf-Concrete-top
** Interaction: Int-2
*Contact Pair, interaction=IntProp-1, type=SURFACE TO SURFACE
Surf-traverse-top, Surf-ballast-top
** ----------------------------------------------------------------
** 
** STEP: Step-1
** 
*Step, name=Step-1, nlgeom=NO
*Dynamic
2e-06,2e-06,1e-15
** 
** BOUNDARY CONDITIONS
** 
** Name: BC-3 Type: Symmetry/Antisymmetry/Encastre
*Boundary
Set-Bottom-Side, ENCASTRE
** Name: BC-5 Type: Symmetry/Antisymmetry/Encastre
*Boundary
Set-bottom-rail, YASYMM
** Name: BC-6 Type: Symmetry/Antisymmetry/Encastre
*Boundary
Set-bottom-concrete-x, YASYMM
** Name: BC-7 Type: Symmetry/Antisymmetry/Encastre
*Boundary
Set-bottom-ballast-x, YASYMM
** Name: BC-8 Type: Symmetry/Antisymmetry/Encastre
*Boundary
Set-top-ballast-x, YASYMM
** Name: BC-11 Type: Symmetry/Antisymmetry/Encastre
*Boundary
Set-top-concrete, YASYMM
** Name: BC-13 Type: Symmetry/Antisymmetry/Encastre
*Boundary
Set-top-rail, YASYMM
** 
** LOADS
** 
** Name: Load-7   Type: Body force
*Dload
Set-rail-x, BY, -1.115e+06
** Name: Load-8   Type: Body force
*Dload
Set-concrete, BY, -1.115e+06
** Name: Load-9   Type: Body force
*Dload
Set-19, BY, -1.115e+06
** 
** OUTPUT REQUESTS
** 
*Restart, write, frequency=0
** 
** FIELD OUTPUT: F-Output-1
** 
*Output, field, variable=PRESELECT
** 
** HISTORY OUTPUT: H-Output-1
** 
*Output, history, variable=PRESELECT
*End Step
