*Heading
** Job name: Job-Rail-Wheel-Brake Model name: brake
** Generated by: Abaqus/CAE 2023
*Preprint, echo=NO, model=NO, history=NO, contact=NO
**
** PARTS
**
*Part, name=BRAKE
*Node
      1,   551.148438,   191.148438,          50.
      2,   371.148438,   502.917572,          50.
      3,   371.148438,   502.917572,         100.
      4,   551.148438,   191.148438,         100.
      5,   356.148438,   476.936829,          50.
      6,   356.148438,   476.936829,         100.
      7,   521.148438,   191.148438,         100.
      8,   521.148438,   191.148438,          50.
      9,   551.148438,   191.148438,           0.
     10,   371.148438,   502.917572,           0.
     11,   521.148438,   191.148438,           0.
     12,   356.148438,   476.936829,           0.
     13,   550.539368,   212.080566,          50.
     14,   548.714233,   232.941879,          50.
     15,   545.679199,   253.661774,          50.
     16,    541.44458,   274.170135,          50.
     17,   536.024658,   294.397583,          50.
     18,   529.437805,   314.275696,          50.
     19,   521.706238,   333.737152,          50.
     20,   512.856201,   352.716125,          50.
** ... 246 like lines cut
*Element, type=C3D8RT
  1,   8,  67, 165,  87,   1,  13, 131,  50
  2,  67,  66, 166, 165,  13,  14, 132, 131
  3,  66,  65, 167, 166,  14,  15, 133, 132
  4,  65,  64, 168, 167,  15,  16, 134, 133
  5,  64,  63, 169, 168,  16,  17, 135, 134
  6,  63,  62, 170, 169,  17,  18, 136, 135
  7,  62,  61, 171, 170,  18,  19, 137, 136
  8,  61,  60, 172, 171,  19,  20, 138, 137
  9,  60,  59, 173, 172,  20,  21, 139, 138
 10,  59,  58, 174, 173,  21,  22, 140, 139
 11,  58,  57, 175, 174,  22,  23, 141, 140
 12,  57,  56, 176, 175,  23,  24, 142, 141
 13,  56,  55, 177, 176,  24,  25, 143, 142
 14,  55,  54, 178, 177,  25,  26, 144, 143
 15,  54,  53, 179, 178,  26,  27, 145, 144
 16,  53,  52, 180, 179,  27,  28, 146, 145
 17,  52,  51, 181, 180,  28,  29, 147, 146
 18,  51,   5,  69, 181,  29,   2,  30, 147
 19,  87, 165, 182,  88,  50, 131, 148,  49
 20, 165, 166, 183, 182, 131, 132, 149, 148
** ... 88 like lines cut
*Nset, nset=SET-1, generate
   1,  266,    1
*Elset, elset=SET-1, generate
   1,  108,    1
** Section: Section-3-SET-1
*Solid Section, elset=SET-1, controls=EC-2, material=BRAKE
,
*End Part
**  
*Part, name=RAIL
*Node
      1,   5921.98047,   944.406372,        2000.
      2,   5921.98047,   772.406372,        2000.
      3,   5848.98047,   772.406372,        2000.
      4,   5846.98047,   774.406372,        2000.
      5,   5846.98047,   779.906372,        2000.
      6,   5850.98047,   783.906372,        2000.
      7,   5859.93359,   783.906372,        2000.
      8,   5873.60352,   786.314636,        2000.
      9,   5903.61182,   797.226746,        2000.
     10,   5907.12402,   800.045715,        2000.
     11,   5912.13574,   813.156372,        2000.
     12,   5913.73047,   832.656372,        2000.
     13,   5913.73047,   864.656372,        2000.
     14,   5912.13574,   884.156372,        2000.
     15,   5907.12402,   897.267029,        2000.
     16,   5903.61182,   900.085938,        2000.
     17,   5888.04785,   905.745544,        2000.
     18,   5886.07568,   908.694885,        2000.
     19,   5887.00439,   930.106384,        2000.
     20,    5895.9541,   942.656494,        2000.
** ... 20080 like lines cut
*Element, type=C3D8RT
    1,    12,    11,   129,   128,  1228,  1129,  9052,  9051
    2,  8132,     8,     7,  8130, 13382,   832,   733, 13380
    3,  8130,     7,     6,  8120, 13380,   733,   634, 13370
    4,  8127,  8119,   134,     3, 13377, 13369,  8452,   337
    5,   134,  8119,  8128,     4,  8452, 13369, 13378,   436
    6,  8132,  8130,  8120,   133, 13382, 13380, 13370,  8155
    7,  8132,  8134,   136,     8, 13382, 13384,  8650,   832
    8,  8135,  8121,    11,    10, 13385, 13371,  1129,  1030
    9,   129,    11,  8121,   130,  9052,  1129, 13371,  9053
   10,   128,   127,   137,    12,  9051,  9050,  8749,  1228
   11,    13,   126,   125,    14,  1327,  9049,  9048,  1426
   12,    14,   125,   124,    15,  1426,  9048,  9047,  1525
   13,  8133,  8123,   124,   123, 13383, 13373,  9047,  9046
   14,    21,  8133,   123,     1,  2119, 13383,  9046,  2218
   15,  8133,  8124,  8122,  8123, 13383, 13374, 13372, 13373
   16,    21,    20,  8124,  8133,  2119,  2020, 13374, 13383
   17,  8122,  8125,   138,    17, 13372, 13375,  8848,  1723
   18,    19,  8131,  8122,  8124,  1921, 13381, 13372, 13374
   19,  8125,  8126,    18,   138, 13375, 13376,  1822,  8848
   20,   130,  8121,   131,     2,  9053, 13371,  8157,   140
** ... 13980 like lines cut
*Nset, nset=SET-1, generate
     1,  20100,      1
*Elset, elset=SET-1, generate
     1,  14000,      1
** Section: Section-1-SET-1
*Solid Section, elset=SET-1, controls=EC-1, material=RAIL
,
*End Part
**  
*Part, name=WHEEL
*Node
      1,   732.829712,  -560.943481,           0.
      2,   457.826569,  -560.943481,   275.003113
      3,   457.826569,   -555.68103,   275.003113
      4,   732.829712,   -555.68103,           0.
      5,   787.440247,  -560.943481,           0.
      6,   457.826569,  -560.943481,   329.613678
      7,   734.829712,   -553.68103,           0.
      8,   780.189697,   -553.68103,           0.
      9,   457.826569,   -553.68103,   277.003113
     10,   457.826569,   -553.68103,   322.363129
     11,   457.826569,  -560.943481,  -329.613678
     12,   457.826569,   -553.68103,  -322.363129
     13,   457.826569,   -553.68103,  -277.003113
     14,   457.826569,   -555.68103,  -275.003113
     15,   457.826569,  -560.943481,  -275.003113
     16,   182.823456,  -560.943481,           0.
     17,   182.823456,   -555.68103,           0.
     18,   128.212921,  -560.943481,           0.
     19,    135.46347,   -553.68103,           0.
     20,   180.823456,   -553.68103,           0.
** ... 9164 like lines cut
*Element, type=C3D8RT
   1, 2487,  178, 2459, 5390,  163,    1,  164, 2445
   2, 5390, 2459, 2460, 5391, 2445,  164,  165, 2446
   3, 5391, 2460, 2461, 5392, 2446,  165,  166, 2447
   4, 5392, 2461, 2462, 5393, 2447,  166,  167, 2448
   5, 5393, 2462, 2463, 5394, 2448,  167,  168, 2449
   6, 5394, 2463, 2464, 5395, 2449,  168,  169, 2450
   7, 5395, 2464, 2465, 5389, 2450,  169,  170, 2451
   8, 2465, 2466, 5402, 5389,  170,  171, 2452, 2451
   9, 2466, 2467, 5401, 5402,  171,  172, 2453, 2452
  10, 2467, 2468, 5400, 5401,  172,  173, 2454, 2453
  11, 2468, 2469, 5399, 5400,  173,  174, 2455, 2454
  12, 2469, 2470, 5398, 5399,  174,  175, 2456, 2455
  13, 2470, 2471, 5397, 5398,  175,  176, 2457, 2456
  14, 2471, 2472, 5396, 5397,  176,  177, 2458, 2457
  15, 2472,  182, 2489, 5396,  177,    2,  180, 2458
  16, 2489,  197, 2491, 5396,  180,    3,  183, 2458
  17, 5396, 2491, 2492, 5397, 2458,  183,  184, 2457
  18, 5397, 2492, 2493, 5398, 2457,  184,  185, 2456
  19, 5398, 2493, 2494, 5399, 2456,  185,  186, 2455
  20, 5399, 2494, 2495, 5400, 2455,  186,  187, 2454
** ... 6756 like lines cut
*Node
   9185,   516.011047,  -526.185181,   52.3895416
*Nset, nset=WHEEL-RefPt_, internal
9185, 
*Nset, nset=SET-1, generate
    1,  9184,     1
*Elset, elset=SET-1, generate
    1,  6776,     1
** Section: Section-2-SET-1
*Solid Section, elset=SET-1, controls=EC-1, material=WHEEL
,
*End Part
**  
**
** ASSEMBLY
**
*Assembly, name=Assembly
**  
*Instance, name=RAIL-1, part=RAIL
-6010.809046,  -782.734798,           0.
*End Instance
**  
*Instance, name=WHEEL-1, part=WHEEL
 -709.581427,    33.323546,        573.3
 -709.581427,    33.323546,        573.3,  -709.581427,    33.323546, 574.300000012688, 89.9999992730282
*End Instance
**  
*Instance, name=BRAKE-1, part=BRAKE
-148.637942801862, 421.184944925622, 840.413615543181
-148.637942801862, 421.184944925622, 840.413615543181, -148.888505607298, 422.120058039731, 840.163052737745, 93.8409664756632
*End Instance
**  
*Instance, name=BRAKE-1-RAD-2, part=BRAKE
-148.637942801862, 561.115309074378, 306.186384456819
-148.637942801862, 561.115309074378, 306.186384456819, -147.94319623565, 561.301465856986, 306.881131023031, 158.909421085518
*End Instance
**  
*Node
      1,  -100.903435,   491.150116,   573.299988
      2,  -73.6379395,   671.150146,   879.069153
      3,  -123.637939,   671.150146,   267.530853
      4,  -98.6379395,   491.150116,   927.299988
      5,  -98.6379395,   491.150116,   219.300003
*Nset, nset=B_SET-50, instance=BRAKE-1, generate
   1,  266,    1
*Elset, elset=B_SET-50, instance=BRAKE-1, generate
   1,  108,    1
*Nset, nset=B_SET-52, instance=BRAKE-1-RAD-2, generate
   1,  266,    1
*Elset, elset=B_SET-52, instance=BRAKE-1-RAD-2, generate
   1,  108,    1
*Nset, nset=M_SET-44
 1,
*Nset, nset=M_SET-73
 2,
*Nset, nset=M_SET-74
 3,
*Nset, nset=M_SET-84
 4,
*Nset, nset=M_SET-85
 5,
*Nset, nset=SET-43, instance=RAIL-1
     2,     3,    22,    43,    45,    46,    83,    85,   122,   131,   132,   133,   140,   141,   142,   143
   144,   145,   146,   147,   148,   149,   150,   151,   152,   153,   154,   155,   156,   157,   158,   159
   160,   161,   162,   163,   164,   165,   166,   167,   168,   169,   170,   171,   172,   173,   174,   175
   176,   177,   178,   179,   180,   181,   182,   183,   184,   185,   186,   187,   188,   189,   190,   191
   192,   193,   194,   195,   196,   197,   198,   199,   200,   201,   202,   203,   204,   205,   206,   207
   208,   209,   210,   211,   212,   213,   214,   215,   216,   217,   218,   219,   220,   221,   222,   223
   224,   225,   226,   227,   228,   229,   230,   231,   232,   233,   234,   235,   236,   237,   238,   239
   240,   241,   242,   243,   244,   245,   246,   247,   248,   249,   250,   251,   252,   253,   254,   255
   256,   257,   258,   259,   260,   261,   262,   263,   264,   265,   266,   267,   268,   269,   270,   271
   272,   273,   274,   275,   276,   277,   278,   279,   280,   281,   282,   283,   284,   285,   286,   287
   288,   289,   290,   291,   292,   293,   294,   295,   296,   297,   298,   299,   300,   301,   302,   303
   304,   305,   306,   307,   308,   309,   310,   311,   312,   313,   314,   315,   316,   317,   318,   319
   320,   321,   322,   323,   324,   325,   326,   327,   328,   329,   330,   331,   332,   333,   334,   335
   336,   337,  2232,  2233,  2234,  4116,  4117,  4118,  4119,  4120,  4121,  4122,  4123,  4124,  4125,  4126
  4127,  4128,  4129,  4130,  4131,  4132,  4133,  4134,  4135,  4136,  4137,  4138,  4139,  4140,  4141,  4142
  4143,  4144,  4145,  4146,  4147,  4148,  4149,  4150,  4151,  4152,  4153,  4154,  4155,  4156,  4157,  4158
  4159,  4160,  4161,  4162,  4163,  4164,  4165,  4166,  4167,  4168,  4169,  4170,  4171,  4172,  4173,  4174
  4175,  4176,  4177,  4178,  4179,  4180,  4181,  4182,  4183,  4184,  4185,  4186,  4187,  4188,  4189,  4190
  4191,  4192,  4193,  4194,  4195,  4196,  4197,  4198,  4199,  4200,  4201,  4202,  4203,  4204,  4205,  4206
  4207,  4208,  4209,  4210,  4211,  4212,  4213,  4214,  4215,  4216,  4217,  4218,  4219,  4220,  4221,  4222
** ... 94 like lines cut
*Elset, elset=SET-43, instance=RAIL-1
    20,    23,    24,    35,    56,    59,    60,    71,    92,    95,    96,   107,   128,   131,   132,   143
   164,   167,   168,   179,   200,   203,   204,   215,   236,   239,   240,   251,   272,   275,   276,   287
   308,   311,   312,   323,   344,   347,   348,   359,   380,   383,   384,   395,   416,   419,   420,   431
   452,   455,   456,   467,   488,   491,   492,   503,   524,   527,   528,   539,   560,   563,   564,   575
   596,   599,   600,   611,   632,   635,   636,   647,   668,   671,   672,   683,   704,   707,   708,   719
   740,   743,   744,   755,   776,   779,   780,   791,   812,   815,   816,   827,   848,   851,   852,   863
   884,   887,   888,   899,   920,   923,   924,   935,   956,   959,   960,   971,   992,   995,   996,  1007
  1028,  1031,  1032,  1043,  1064,  1067,  1068,  1079,  1100,  1103,  1104,  1115,  1136,  1139,  1140,  1151
  1172,  1175,  1176,  1187,  1208,  1211,  1212,  1223,  1244,  1247,  1248,  1259,  1280,  1283,  1284,  1295
  1316,  1319,  1320,  1331,  1352,  1355,  1356,  1367,  1388,  1391,  1392,  1403,  1424,  1427,  1428,  1439
  1460,  1463,  1464,  1475,  1496,  1499,  1500,  1511,  1532,  1535,  1536,  1547,  1568,  1571,  1572,  1583
  1604,  1607,  1608,  1619,  1640,  1643,  1644,  1655,  1676,  1679,  1680,  1691,  1712,  1715,  1716,  1727
  1748,  1751,  1752,  1763,  1784,  1787,  1788,  1799,  1820,  1823,  1824,  1835,  1856,  1859,  1860,  1871
  1892,  1895,  1896,  1907,  1928,  1931,  1932,  1943,  1964,  1967,  1968,  1979,  2000,  2003,  2004,  2015
  2036,  2039,  2040,  2051,  2072,  2075,  2076,  2087,  2108,  2111,  2112,  2123,  2144,  2147,  2148,  2159
  2180,  2183,  2184,  2195,  2216,  2219,  2220,  2231,  2252,  2255,  2256,  2267,  2288,  2291,  2292,  2303
  2324,  2327,  2328,  2339,  2360,  2363,  2364,  2375,  2396,  2399,  2400,  2411,  2432,  2435,  2436,  2447
  2468,  2471,  2472,  2483,  2504,  2507,  2508,  2519,  2540,  2543,  2544,  2555,  2576,  2579,  2580,  2591
  2612,  2615,  2616,  2627,  2648,  2651,  2652,  2663,  2684,  2687,  2688,  2699,  2720,  2723,  2724,  2735
  2756,  2759,  2760,  2771,  2792,  2795,  2796,  2807,  2828,  2831,  2832,  2843,  2864,  2867,  2868,  2879
** ... 80 like lines cut
*Nset, nset=SET-44
 1,
*Nset, nset=SET-45, instance=BRAKE-1, generate
   1,  266,    1
*Nset, nset=SET-45, instance=BRAKE-1-RAD-2, generate
   1,  266,    1
*Elset, elset=SET-45, instance=BRAKE-1, generate
   1,  108,    1
*Elset, elset=SET-45, instance=BRAKE-1-RAD-2, generate
   1,  108,    1
*Nset, nset=SET-46
 1,
*Nset, nset=SET-47
 1,
*Nset, nset=SET-49, instance=BRAKE-1
   1,   2,   3,   4,   9,  10,  13,  14,  15,  16,  17,  18,  19,  20,  21,  22
  23,  24,  25,  26,  27,  28,  29,  30,  31,  32,  33,  34,  35,  36,  37,  38
  39,  40,  41,  42,  43,  44,  45,  46,  47,  48,  49,  50,  89,  90,  91,  92
  93,  94,  95,  96,  97,  98,  99, 100, 101, 102, 103, 104, 105, 106, 107, 108
 109, 131, 132, 133, 134, 135, 136, 137, 138, 139, 140, 141, 142, 143, 144, 145
 146, 147, 148, 149, 150, 151, 152, 153, 154, 155, 156, 157, 158, 159, 160, 161
 162, 163, 164, 199, 200, 201, 202, 203, 204, 205, 206, 207, 208, 209, 210, 211
 212, 213, 214, 215, 216, 217, 218, 219, 220, 221, 222, 223, 224, 225, 226, 227
 228, 229, 230, 231, 232
*Nset, nset=SET-49, instance=BRAKE-1-RAD-2
   1,   2,   3,   4,   9,  10,  13,  14,  15,  16,  17,  18,  19,  20,  21,  22
  23,  24,  25,  26,  27,  28,  29,  30,  31,  32,  33,  34,  35,  36,  37,  38
  39,  40,  41,  42,  43,  44,  45,  46,  47,  48,  49,  50,  89,  90,  91,  92
  93,  94,  95,  96,  97,  98,  99, 100, 101, 102, 103, 104, 105, 106, 107, 108
 109, 131, 132, 133, 134, 135, 136, 137, 138, 139, 140, 141, 142, 143, 144, 145
 146, 147, 148, 149, 150, 151, 152, 153, 154, 155, 156, 157, 158, 159, 160, 161
 162, 163, 164, 199, 200, 201, 202, 203, 204, 205, 206, 207, 208, 209, 210, 211
 212, 213, 214, 215, 216, 217, 218, 219, 220, 221, 222, 223, 224, 225, 226, 227
 228, 229, 230, 231, 232
*Elset, elset=SET-49, instance=BRAKE-1, generate
   1,  108,    1
*Elset, elset=SET-49, instance=BRAKE-1-RAD-2, generate
   1,  108,    1
*Nset, nset=SET-54
 2, 3
*Nset, nset=SET-55, instance=BRAKE-1, generate
   1,  266,    1
*Nset, nset=SET-55, instance=BRAKE-1-RAD-2, generate
   1,  266,    1
*Elset, elset=SET-55, instance=BRAKE-1, generate
   1,  108,    1
*Elset, elset=SET-55, instance=BRAKE-1-RAD-2, generate
   1,  108,    1
*Nset, nset=SET-56
 1,
*Nset, nset=SET-57, instance=BRAKE-1, generate
   1,  266,    1
*Nset, nset=SET-57, instance=BRAKE-1-RAD-2, generate
   1,  266,    1
*Elset, elset=SET-57, instance=BRAKE-1, generate
   1,  108,    1
*Elset, elset=SET-57, instance=BRAKE-1-RAD-2, generate
   1,  108,    1
*Nset, nset=SET-58, instance=RAIL-1, generate
     1,  20100,      1
*Nset, nset=SET-58, instance=BRAKE-1, generate
   1,  266,    1
*Nset, nset=SET-58, instance=BRAKE-1-RAD-2, generate
   1,  266,    1
*Nset, nset=SET-58, instance=WHEEL-1, generate
    1,  9184,     1
*Elset, elset=SET-58, instance=RAIL-1, generate
     1,  14000,      1
*Elset, elset=SET-58, instance=BRAKE-1, generate
   1,  108,    1
*Elset, elset=SET-58, instance=BRAKE-1-RAD-2, generate
   1,  108,    1
*Elset, elset=SET-58, instance=WHEEL-1, generate
    1,  6776,     1
*Nset, nset=SET-59
 1,
*Nset, nset=SET-60
 1,
*Nset, nset=SET-61, instance=BRAKE-1, generate
   1,  266,    1
*Nset, nset=SET-61, instance=BRAKE-1-RAD-2, generate
   1,  266,    1
*Elset, elset=SET-61, instance=BRAKE-1, generate
   1,  108,    1
*Elset, elset=SET-61, instance=BRAKE-1-RAD-2, generate
   1,  108,    1
*Nset, nset=SET-62, instance=RAIL-1, generate
     1,  20100,      1
*Nset, nset=SET-62, instance=BRAKE-1, generate
   1,  266,    1
*Nset, nset=SET-62, instance=BRAKE-1-RAD-2, generate
   1,  266,    1
*Nset, nset=SET-62, instance=WHEEL-1, generate
    1,  9184,     1
*Elset, elset=SET-62, instance=RAIL-1, generate
     1,  14000,      1
*Elset, elset=SET-62, instance=BRAKE-1, generate
   1,  108,    1
*Elset, elset=SET-62, instance=BRAKE-1-RAD-2, generate
   1,  108,    1
*Elset, elset=SET-62, instance=WHEEL-1, generate
    1,  6776,     1
*Nset, nset=SET-63, instance=RAIL-1, generate
     1,  20100,      1
*Nset, nset=SET-63, instance=BRAKE-1, generate
   1,  266,    1
*Nset, nset=SET-63, instance=BRAKE-1-RAD-2, generate
   1,  266,    1
*Nset, nset=SET-63, instance=WHEEL-1, generate
    1,  9184,     1
*Elset, elset=SET-63, instance=RAIL-1, generate
     1,  14000,      1
*Elset, elset=SET-63, instance=BRAKE-1, generate
   1,  108,    1
*Elset, elset=SET-63, instance=BRAKE-1-RAD-2, generate
   1,  108,    1
*Elset, elset=SET-63, instance=WHEEL-1, generate
    1,  6776,     1
*Nset, nset=SET-64, instance=WHEEL-1, generate
    1,  9184,     1
*Elset, elset=SET-64, instance=WHEEL-1, generate
    1,  6776,     1
*Nset, nset=SET-65, instance=WHEEL-1, generate
    1,  9184,     1
*Nset, nset=SET-65, generate
 1,  3,  1
*Nset, nset=SET-65, instance=BRAKE-1, generate
   1,  266,    1
*Nset, nset=SET-65, instance=BRAKE-1-RAD-2, generate
   1,  266,    1
*Elset, elset=SET-65, instance=WHEEL-1, generate
    1,  6776,     1
*Elset, elset=SET-65, instance=BRAKE-1, generate
   1,  108,    1
*Elset, elset=SET-65, instance=BRAKE-1-RAD-2, generate
   1,  108,    1
*Nset, nset=SET-66
 1,
*Nset, nset=SET-67
 1,
*Nset, nset=SET-68, instance=WHEEL-1, generate
    1,  9184,     1
*Nset, nset=SET-68, generate
 1,  3,  1
*Nset, nset=SET-68, instance=BRAKE-1, generate
   1,  266,    1
*Nset, nset=SET-68, instance=BRAKE-1-RAD-2, generate
   1,  266,    1
*Elset, elset=SET-68, instance=WHEEL-1, generate
    1,  6776,     1
*Elset, elset=SET-68, instance=BRAKE-1, generate
   1,  108,    1
*Elset, elset=SET-68, instance=BRAKE-1-RAD-2, generate
   1,  108,    1
*Nset, nset=SET-69, instance=RAIL-1, generate
     1,  20100,      1
*Nset, nset=SET-69, instance=BRAKE-1, generate
   1,  266,    1
*Nset, nset=SET-69, instance=BRAKE-1-RAD-2, generate
   1,  266,    1
*Nset, nset=SET-69, instance=WHEEL-1, generate
    1,  9184,     1
*Elset, elset=SET-69, instance=RAIL-1, generate
     1,  14000,      1
*Elset, elset=SET-69, instance=BRAKE-1, generate
   1,  108,    1
*Elset, elset=SET-69, instance=BRAKE-1-RAD-2, generate
   1,  108,    1
*Elset, elset=SET-69, instance=WHEEL-1, generate
    1,  6776,     1
*Nset, nset=SET-70, instance=RAIL-1, generate
     1,  20100,      1
*Nset, nset=SET-70, instance=BRAKE-1, generate
   1,  266,    1
*Nset, nset=SET-70, instance=BRAKE-1-RAD-2, generate
   1,  266,    1
*Nset, nset=SET-70, instance=WHEEL-1, generate
    1,  9184,     1
*Elset, elset=SET-70, instance=RAIL-1, generate
     1,  14000,      1
*Elset, elset=SET-70, instance=BRAKE-1, generate
   1,  108,    1
*Elset, elset=SET-70, instance=BRAKE-1-RAD-2, generate
   1,  108,    1
*Elset, elset=SET-70, instance=WHEEL-1, generate
    1,  6776,     1
*Nset, nset=SET-71, instance=WHEEL-1, generate
    1,  9184,     1
*Nset, nset=SET-71, generate
 1,  3,  1
*Nset, nset=SET-71, instance=BRAKE-1, generate
   1,  266,    1
*Nset, nset=SET-71, instance=BRAKE-1-RAD-2, generate
   1,  266,    1
*Elset, elset=SET-71, instance=WHEEL-1, generate
    1,  6776,     1
*Elset, elset=SET-71, instance=BRAKE-1, generate
   1,  108,    1
*Elset, elset=SET-71, instance=BRAKE-1-RAD-2, generate
   1,  108,    1
*Nset, nset=SET-72, instance=WHEEL-1, generate
    1,  9184,     1
*Elset, elset=SET-72, instance=WHEEL-1, generate
    1,  6776,     1
*Nset, nset=SET-73
 1,
*Nset, nset=SET-74, instance=BRAKE-1, generate
   1,  266,    1
*Nset, nset=SET-74, instance=BRAKE-1-RAD-2, generate
   1,  266,    1
*Elset, elset=SET-74, instance=BRAKE-1, generate
   1,  108,    1
*Elset, elset=SET-74, instance=BRAKE-1-RAD-2, generate
   1,  108,    1
*Nset, nset=SET-75
 2,
*Nset, nset=SET-76
 3,
*Nset, nset=SET-77
 2, 3
*Nset, nset=SET-78
 2, 3
*Nset, nset=SET-79
 1,
*Nset, nset=SET-80
 4, 5
*Nset, nset=SET-81
 4, 5
*Nset, nset=SET-82
 4,
*Nset, nset=SET-83
 5,
*Nset, nset=SET-86, instance=WHEEL-1, generate
    1,  9184,     1
*Nset, nset=SET-86, generate
 1,  5,  1
*Nset, nset=SET-86, instance=BRAKE-1, generate
   1,  266,    1
*Nset, nset=SET-86, instance=BRAKE-1-RAD-2, generate
   1,  266,    1
*Elset, elset=SET-86, instance=WHEEL-1, generate
    1,  6776,     1
*Elset, elset=SET-86, instance=BRAKE-1, generate
   1,  108,    1
*Elset, elset=SET-86, instance=BRAKE-1-RAD-2, generate
   1,  108,    1
*Nset, nset=SET-87, instance=BRAKE-1, generate
   1,  266,    1
*Nset, nset=SET-87, instance=BRAKE-1-RAD-2, generate
   1,  266,    1
*Elset, elset=SET-87, instance=BRAKE-1, generate
   1,  108,    1
*Elset, elset=SET-87, instance=BRAKE-1-RAD-2, generate
   1,  108,    1
*Nset, nset=SET-88, instance=BRAKE-1, generate
   1,  266,    1
*Nset, nset=SET-88, instance=BRAKE-1-RAD-2, generate
   1,  266,    1
*Elset, elset=SET-88, instance=BRAKE-1, generate
   1,  108,    1
*Elset, elset=SET-88, instance=BRAKE-1-RAD-2, generate
   1,  108,    1
*Nset, nset=SET-89, instance=BRAKE-1, generate
   1,  266,    1
*Nset, nset=SET-89, instance=BRAKE-1-RAD-2, generate
   1,  266,    1
*Elset, elset=SET-89, instance=BRAKE-1, generate
   1,  108,    1
*Elset, elset=SET-89, instance=BRAKE-1-RAD-2, generate
   1,  108,    1
*Nset, nset=SET-90, instance=BRAKE-1, generate
   1,  266,    1
*Nset, nset=SET-90, instance=BRAKE-1-RAD-2, generate
   1,  266,    1
*Elset, elset=SET-90, instance=BRAKE-1, generate
   1,  108,    1
*Elset, elset=SET-90, instance=BRAKE-1-RAD-2, generate
   1,  108,    1
*Nset, nset=SET-91
 4, 5
*Nset, nset=S_SET-44, instance=WHEEL-1, generate
    1,  9184,     1
*Elset, elset=S_SET-44, instance=WHEEL-1, generate
    1,  6776,     1
*Nset, nset=S_SET-46, instance=WHEEL-1
    5,   11,   18,   24,   29,   32,   80,  247,  248,  249,  250,  251,  252,  253,  254,  255
  256,  257,  258,  259,  260,  352,  353,  354,  355,  356,  357,  358,  359,  360,  361,  362
  363,  529,  530,  531,  532,  533,  534,  535,  536,  537,  538,  539,  540,  541,  542,  579
  580,  581,  582,  583,  584,  585,  586,  587,  588,  589,  590, 1127, 1128, 1129, 1348, 1349
 1350, 1351, 1617, 1618, 1619, 1620, 3907, 3908, 3909, 3910, 3911, 3912, 3913, 3914, 3915, 3916
 3917, 3918, 3919, 3920, 3921, 3922, 3923, 3924, 3925, 3926, 3927, 3928, 3929, 3930, 3931, 3932
 3933, 3934, 3935, 3936, 3937, 3938, 3939, 3940, 3941, 3942, 3943, 3944, 3945, 3946, 3947, 3948
 3949, 3950, 3951, 3952, 3953, 3954, 3955, 3956, 3957, 3958, 3959, 3960, 3961, 3962, 4305, 4306
 4307, 4308, 4309, 4310, 4311, 4312, 4313, 4314, 4315, 4316, 4317, 4318, 4319, 4320, 4321, 4322
 4323, 4324, 4325, 4326, 4327, 4328, 4329, 4330, 4331, 4332, 4333, 4334, 4335, 4336, 4337, 4338
 4339, 4340, 4341, 4342, 4343, 4344, 4345, 4346, 4347, 4348, 4349, 4350, 4351, 4352
*Elset, elset=S_SET-46, instance=WHEEL-1
 2218, 2226, 2227, 2244, 2247, 2279, 2287, 2288, 2305, 2308, 2340, 2348, 2349, 2366, 2369, 2401
 2409, 2410, 2427, 2430, 2462, 2470, 2471, 2488, 2491, 2523, 2531, 2532, 2549, 2552, 2584, 2592
 2593, 2610, 2613, 2645, 2653, 2654, 2671, 2674, 2706, 2714, 2715, 2732, 2735, 2767, 2775, 2776
 2793, 2796, 2828, 2836, 2837, 2854, 2857, 2889, 2897, 2898, 2915, 2918, 2950, 2958, 2959, 2976
 2979, 3011, 3019, 3020, 3037, 3040, 3072, 3080, 3081, 3098, 3101, 3133, 3141, 3142, 3159, 3162
 3194, 3202, 3203, 3220, 3223, 3255, 3263, 3264, 3281, 3284, 3316, 3324, 3325, 3342, 3345, 3377
 3385, 3386, 3403, 3406, 3438, 3446, 3447, 3464, 3467, 3499, 3507, 3508, 3525, 3528, 3560, 3568
 3569, 3586, 3589, 3621, 3629, 3630, 3647, 3650, 3682, 3690, 3691, 3708, 3711, 3743, 3751, 3752
 3769, 3772, 3804, 3812, 3813, 3830, 3833, 3865, 3873, 3874, 3891, 3894
*Nset, nset=S_SET-47, instance=WHEEL-1
    5,    6,   11,   18,   21,   24,   29,   32,   80,  199,  200,  201,  202,  203,  204,  205
  206,  207,  208,  209,  210,  211,  212,  247,  248,  249,  250,  251,  252,  253,  254,  255
  256,  257,  258,  259,  260,  352,  353,  354,  355,  356,  357,  358,  359,  360,  361,  362
  363,  391,  392,  393,  394,  395,  396,  397,  398,  399,  400,  401,  402,  467,  468,  469
  470,  471,  472,  473,  474,  475,  476,  477,  478,  529,  530,  531,  532,  533,  534,  535
  536,  537,  538,  539,  540,  541,  542,  579,  580,  581,  582,  583,  584,  585,  586,  587
  588,  589,  590,  655,  656,  657,  658,  659,  660,  661,  662,  663,  664,  665,  666,  667
  668, 1020, 1021, 1022, 1023, 1127, 1128, 1129, 1348, 1349, 1350, 1351, 1617, 1618, 1619, 1620
 3505, 3506, 3507, 3508, 3509, 3510, 3511, 3512, 3513, 3514, 3515, 3516, 3517, 3518, 3519, 3520
 3521, 3522, 3523, 3524, 3525, 3526, 3527, 3528, 3529, 3530, 3531, 3532, 3533, 3534, 3535, 3536
 3537, 3538, 3539, 3540, 3541, 3542, 3543, 3544, 3545, 3546, 3547, 3548, 3549, 3550, 3551, 3552
 3553, 3554, 3555, 3556, 3557, 3558, 3559, 3560, 3907, 3908, 3909, 3910, 3911, 3912, 3913, 3914
 3915, 3916, 3917, 3918, 3919, 3920, 3921, 3922, 3923, 3924, 3925, 3926, 3927, 3928, 3929, 3930
 3931, 3932, 3933, 3934, 3935, 3936, 3937, 3938, 3939, 3940, 3941, 3942, 3943, 3944, 3945, 3946
 3947, 3948, 3949, 3950, 3951, 3952, 3953, 3954, 3955, 3956, 3957, 3958, 3959, 3960, 3961, 3962
 4305, 4306, 4307, 4308, 4309, 4310, 4311, 4312, 4313, 4314, 4315, 4316, 4317, 4318, 4319, 4320
 4321, 4322, 4323, 4324, 4325, 4326, 4327, 4328, 4329, 4330, 4331, 4332, 4333, 4334, 4335, 4336
 4337, 4338, 4339, 4340, 4341, 4342, 4343, 4344, 4345, 4346, 4347, 4348, 4349, 4350, 4351, 4352
 4605, 4606, 4607, 4608, 4609, 4610, 4611, 4612, 4613, 4614, 4615, 4616, 4617, 4618, 4619, 4620
 4621, 4622, 4623, 4624, 4625, 4626, 4627, 4628, 4629, 4630, 4631, 4632, 4633, 4634, 4635, 4636
 4637, 4638, 4639, 4640, 4641, 4642, 4643, 4644, 4645, 4646, 4647, 4648, 4649, 4650, 4651, 4652
*Elset, elset=S_SET-47, instance=WHEEL-1
 1303, 1311, 1312, 1329, 1332, 1364, 1372, 1373, 1390, 1393, 1425, 1433, 1434, 1451, 1454, 1486
 1494, 1495, 1512, 1515, 1547, 1555, 1556, 1573, 1576, 1608, 1616, 1617, 1634, 1637, 1669, 1677
 1678, 1695, 1698, 1730, 1738, 1739, 1756, 1759, 1791, 1799, 1800, 1817, 1820, 1852, 1860, 1861
 1878, 1881, 1913, 1921, 1922, 1939, 1942, 1974, 1982, 1983, 2000, 2003, 2035, 2043, 2044, 2061
 2064, 2096, 2104, 2105, 2122, 2125, 2157, 2165, 2166, 2183, 2186, 2218, 2226, 2227, 2244, 2247
 2279, 2287, 2288, 2305, 2308, 2340, 2348, 2349, 2366, 2369, 2401, 2409, 2410, 2427, 2430, 2462
 2470, 2471, 2488, 2491, 2523, 2531, 2532, 2549, 2552, 2584, 2592, 2593, 2610, 2613, 2645, 2653
 2654, 2671, 2674, 2706, 2714, 2715, 2732, 2735, 2767, 2775, 2776, 2793, 2796, 2828, 2836, 2837
 2854, 2857, 2889, 2897, 2898, 2915, 2918, 2950, 2958, 2959, 2976, 2979, 3011, 3019, 3020, 3037
 3040, 3072, 3080, 3081, 3098, 3101, 3133, 3141, 3142, 3159, 3162, 3194, 3202, 3203, 3220, 3223
 3255, 3263, 3264, 3281, 3284, 3316, 3324, 3325, 3342, 3345, 3377, 3385, 3386, 3403, 3406, 3438
 3446, 3447, 3464, 3467, 3499, 3507, 3508, 3525, 3528, 3560, 3568, 3569, 3586, 3589, 3621, 3629
 3630, 3647, 3650, 3682, 3690, 3691, 3708, 3711, 3743, 3751, 3752, 3769, 3772, 3804, 3812, 3813
 3830, 3833, 3865, 3873, 3874, 3891, 3894, 3926, 3934, 3935, 3952, 3955, 3987, 3995, 3996, 4013
 4016, 4048, 4056, 4057, 4074, 4077, 4109, 4117, 4118, 4135, 4138, 4170, 4178, 4179, 4196, 4199
 4231, 4239, 4240, 4257, 4260, 4292, 4300, 4301, 4318, 4321, 4353, 4361, 4362, 4379, 4382, 4414
 4422, 4423, 4440, 4443, 4475, 4483, 4484, 4501, 4504, 4536, 4544, 4545, 4562, 4565, 4597, 4605
 4606, 4623, 4626, 4658, 4666, 4667, 4684, 4687
*Nset, nset=S_SET-48, instance=WHEEL-1
    5,    6,   11,   18,   21,   24,   29,   32,   80,  199,  200,  201,  202,  203,  204,  205
  206,  207,  208,  209,  210,  211,  212,  247,  248,  249,  250,  251,  252,  253,  254,  255
  256,  257,  258,  259,  260,  352,  353,  354,  355,  356,  357,  358,  359,  360,  361,  362
  363,  391,  392,  393,  394,  395,  396,  397,  398,  399,  400,  401,  402,  467,  468,  469
  470,  471,  472,  473,  474,  475,  476,  477,  478,  529,  530,  531,  532,  533,  534,  535
  536,  537,  538,  539,  540,  541,  542,  579,  580,  581,  582,  583,  584,  585,  586,  587
  588,  589,  590,  655,  656,  657,  658,  659,  660,  661,  662,  663,  664,  665,  666,  667
  668, 1020, 1021, 1022, 1023, 1127, 1128, 1129, 1348, 1349, 1350, 1351, 1617, 1618, 1619, 1620
 3505, 3506, 3507, 3508, 3509, 3510, 3511, 3512, 3513, 3514, 3515, 3516, 3517, 3518, 3519, 3520
 3521, 3522, 3523, 3524, 3525, 3526, 3527, 3528, 3529, 3530, 3531, 3532, 3533, 3534, 3535, 3536
 3537, 3538, 3539, 3540, 3541, 3542, 3543, 3544, 3545, 3546, 3547, 3548, 3549, 3550, 3551, 3552
 3553, 3554, 3555, 3556, 3557, 3558, 3559, 3560, 3907, 3908, 3909, 3910, 3911, 3912, 3913, 3914
 3915, 3916, 3917, 3918, 3919, 3920, 3921, 3922, 3923, 3924, 3925, 3926, 3927, 3928, 3929, 3930
 3931, 3932, 3933, 3934, 3935, 3936, 3937, 3938, 3939, 3940, 3941, 3942, 3943, 3944, 3945, 3946
 3947, 3948, 3949, 3950, 3951, 3952, 3953, 3954, 3955, 3956, 3957, 3958, 3959, 3960, 3961, 3962
 4305, 4306, 4307, 4308, 4309, 4310, 4311, 4312, 4313, 4314, 4315, 4316, 4317, 4318, 4319, 4320
 4321, 4322, 4323, 4324, 4325, 4326, 4327, 4328, 4329, 4330, 4331, 4332, 4333, 4334, 4335, 4336
 4337, 4338, 4339, 4340, 4341, 4342, 4343, 4344, 4345, 4346, 4347, 4348, 4349, 4350, 4351, 4352
 4605, 4606, 4607, 4608, 4609, 4610, 4611, 4612, 4613, 4614, 4615, 4616, 4617, 4618, 4619, 4620
 4621, 4622, 4623, 4624, 4625, 4626, 4627, 4628, 4629, 4630, 4631, 4632, 4633, 4634, 4635, 4636
 4637, 4638, 4639, 4640, 4641, 4642, 4643, 4644, 4645, 4646, 4647, 4648, 4649, 4650, 4651, 4652
*Elset, elset=S_SET-48, instance=WHEEL-1
 1303, 1311, 1312, 1329, 1332, 1364, 1372, 1373, 1390, 1393, 1425, 1433, 1434, 1451, 1454, 1486
 1494, 1495, 1512, 1515, 1547, 1555, 1556, 1573, 1576, 1608, 1616, 1617, 1634, 1637, 1669, 1677
 1678, 1695, 1698, 1730, 1738, 1739, 1756, 1759, 1791, 1799, 1800, 1817, 1820, 1852, 1860, 1861
 1878, 1881, 1913, 1921, 1922, 1939, 1942, 1974, 1982, 1983, 2000, 2003, 2035, 2043, 2044, 2061
 2064, 2096, 2104, 2105, 2122, 2125, 2157, 2165, 2166, 2183, 2186, 2218, 2226, 2227, 2244, 2247
 2279, 2287, 2288, 2305, 2308, 2340, 2348, 2349, 2366, 2369, 2401, 2409, 2410, 2427, 2430, 2462
 2470, 2471, 2488, 2491, 2523, 2531, 2532, 2549, 2552, 2584, 2592, 2593, 2610, 2613, 2645, 2653
 2654, 2671, 2674, 2706, 2714, 2715, 2732, 2735, 2767, 2775, 2776, 2793, 2796, 2828, 2836, 2837
 2854, 2857, 2889, 2897, 2898, 2915, 2918, 2950, 2958, 2959, 2976, 2979, 3011, 3019, 3020, 3037
 3040, 3072, 3080, 3081, 3098, 3101, 3133, 3141, 3142, 3159, 3162, 3194, 3202, 3203, 3220, 3223
 3255, 3263, 3264, 3281, 3284, 3316, 3324, 3325, 3342, 3345, 3377, 3385, 3386, 3403, 3406, 3438
 3446, 3447, 3464, 3467, 3499, 3507, 3508, 3525, 3528, 3560, 3568, 3569, 3586, 3589, 3621, 3629
 3630, 3647, 3650, 3682, 3690, 3691, 3708, 3711, 3743, 3751, 3752, 3769, 3772, 3804, 3812, 3813
 3830, 3833, 3865, 3873, 3874, 3891, 3894, 3926, 3934, 3935, 3952, 3955, 3987, 3995, 3996, 4013
 4016, 4048, 4056, 4057, 4074, 4077, 4109, 4117, 4118, 4135, 4138, 4170, 4178, 4179, 4196, 4199
 4231, 4239, 4240, 4257, 4260, 4292, 4300, 4301, 4318, 4321, 4353, 4361, 4362, 4379, 4382, 4414
 4422, 4423, 4440, 4443, 4475, 4483, 4484, 4501, 4504, 4536, 4544, 4545, 4562, 4565, 4597, 4605
 4606, 4623, 4626, 4658, 4666, 4667, 4684, 4687
*Nset, nset=S_SET-44_CNS_, internal, instance=WHEEL-1, generate
    1,  9184,     1
*Elset, elset=_M_SURF-5_S1, internal, instance=BRAKE-1, generate
   1,  108,    1
*Elset, elset=_M_SURF-6_S1, internal, instance=BRAKE-1-RAD-2, generate
   1,  108,    1
*Elset, elset=_M_SURF-8_S3, internal, instance=WHEEL-1
 1303, 1312, 1364, 1373, 1425, 1434, 1486, 1495, 1547, 1556, 1608, 1617, 1669, 1678, 1730, 1739
 1791, 1800, 1852, 1861, 1913, 1922, 1974, 1983, 2035, 2044, 2096, 2105, 2157, 2166, 2218, 2227
 2279, 2288, 2340, 2349, 2401, 2410, 2462, 2471, 2523, 2532, 2584, 2593, 2645, 2654, 2706, 2715
 2767, 2776, 2828, 2837, 2889, 2898, 2950, 2959, 3011, 3020, 3072, 3081, 3133, 3142, 3194, 3203
 3255, 3264, 3316, 3325, 3377, 3386, 3438, 3447, 3499, 3508, 3560, 3569, 3621, 3630, 3682, 3691
 3743, 3752, 3804, 3813, 3865, 3874, 3926, 3935, 3987, 3996, 4048, 4057, 4109, 4118, 4170, 4179
 4231, 4240, 4292, 4301, 4353, 4362, 4414, 4423, 4475, 4484, 4536, 4545, 4597, 4606, 4658, 4667
*Elset, elset=_M_SURF-8_S4, internal, instance=WHEEL-1, generate
 1311,  4666,    61
*Elset, elset=_M_SURF-8_S5, internal, instance=WHEEL-1, generate
 1329,  4684,    61
*Elset, elset=_M_SURF-8_S6, internal, instance=WHEEL-1, generate
 1332,  4687,    61
*Elset, elset=_M_SURF-11_S1, internal, instance=BRAKE-1, generate
   1,  108,    1
*Elset, elset=_M_SURF-13_S1, internal, instance=BRAKE-1-RAD-2, generate
   1,  108,    1
*Elset, elset=_M_SURF-15_S3, internal, instance=WHEEL-1
 1303, 1312, 1364, 1373, 1425, 1434, 1486, 1495, 1547, 1556, 1608, 1617, 1669, 1678, 1730, 1739
 1791, 1800, 1852, 1861, 1913, 1922, 1974, 1983, 2035, 2044, 2096, 2105, 2157, 2166, 2218, 2227
 2279, 2288, 2340, 2349, 2401, 2410, 2462, 2471, 2523, 2532, 2584, 2593, 2645, 2654, 2706, 2715
 2767, 2776, 2828, 2837, 2889, 2898, 2950, 2959, 3011, 3020, 3072, 3081, 3133, 3142, 3194, 3203
 3255, 3264, 3316, 3325, 3377, 3386, 3438, 3447, 3499, 3508, 3560, 3569, 3621, 3630, 3682, 3691
 3743, 3752, 3804, 3813, 3865, 3874, 3926, 3935, 3987, 3996, 4048, 4057, 4109, 4118, 4170, 4179
 4231, 4240, 4292, 4301, 4353, 4362, 4414, 4423, 4475, 4484, 4536, 4545, 4597, 4606, 4658, 4667
*Elset, elset=_M_SURF-15_S4, internal, instance=WHEEL-1, generate
 1311,  4666,    61
*Elset, elset=_M_SURF-15_S5, internal, instance=WHEEL-1, generate
 1329,  4684,    61
*Elset, elset=_M_SURF-15_S6, internal, instance=WHEEL-1, generate
 1332,  4687,    61
*Elset, elset=_M_SURF-17_S1, internal, instance=BRAKE-1-RAD-2, generate
   1,  108,    1
*Elset, elset=_M_SURF-19_S1, internal, instance=BRAKE-1, generate
   1,  108,    1
*Elset, elset=_M_SURF-21_S3, internal, instance=WHEEL-1
 1303, 1312, 1364, 1373, 1425, 1434, 1486, 1495, 1547, 1556, 1608, 1617, 1669, 1678, 1730, 1739
 1791, 1800, 1852, 1861, 1913, 1922, 1974, 1983, 2035, 2044, 2096, 2105, 2157, 2166, 2218, 2227
 2279, 2288, 2340, 2349, 2401, 2410, 2462, 2471, 2523, 2532, 2584, 2593, 2645, 2654, 2706, 2715
 2767, 2776, 2828, 2837, 2889, 2898, 2950, 2959, 3011, 3020, 3072, 3081, 3133, 3142, 3194, 3203
 3255, 3264, 3316, 3325, 3377, 3386, 3438, 3447, 3499, 3508, 3560, 3569, 3621, 3630, 3682, 3691
 3743, 3752, 3804, 3813, 3865, 3874, 3926, 3935, 3987, 3996, 4048, 4057, 4109, 4118, 4170, 4179
 4231, 4240, 4292, 4301, 4353, 4362, 4414, 4423, 4475, 4484, 4536, 4545, 4597, 4606, 4658, 4667
*Elset, elset=_M_SURF-21_S4, internal, instance=WHEEL-1, generate
 1311,  4666,    61
*Elset, elset=_M_SURF-21_S5, internal, instance=WHEEL-1, generate
 1329,  4684,    61
*Elset, elset=_M_SURF-21_S6, internal, instance=WHEEL-1, generate
 1332,  4687,    61
*Elset, elset=_SURF-7_S2, internal, instance=BRAKE-1, generate
   1,  108,    1
*Elset, elset=_SURF-7_S2, internal, instance=BRAKE-1-RAD-2, generate
   1,  108,    1
*Elset, elset=_SURF-10_S2, internal, instance=BRAKE-1, generate
   1,  108,    1
*Elset, elset=_SURF-10_S2, internal, instance=BRAKE-1-RAD-2, generate
   1,  108,    1
*Elset, elset=_S_SURF-8_S3, internal, instance=RAIL-1
    16,    52,    88,   124,   160,   196,   232,   268,   304,   340,   376,   412,   448,   484,   520,   556
   592,   628,   664,   700,   736,   772,   808,   844,   880,   916,   952,   988,  1024,  1060,  1096,  1132
  1168,  1204,  1240,  1276,  1312,  1348,  1384,  1420,  1456,  1492,  1528,  1564,  1600,  1636,  1672,  1708
  1744,  1780,  1816,  1852,  1888,  1924,  1960,  1996,  2032,  2068,  2104,  2140,  2176,  2212,  2248,  2284
  2320,  2356,  2392,  2428,  2464,  2500,  2536,  2572,  2608,  2644,  2680,  2716,  2752,  2788,  2824,  2860
  2896,  2932,  2968,  3004,  3040,  3076,  3112,  3148,  3184,  3220,  3256,  3292,  3328,  3364,  3400,  3436
  3472,  3508,  3544,  3580,  3614,  3650,  3686,  3722,  3758,  3794,  3830,  3866,  3902,  3938,  3974,  4010
  4046,  4082,  4118,  4154,  4190,  4226,  4262,  4298,  4334,  4370,  4406,  4442,  4478,  4514,  4550,  4586
  4622,  4658,  4694,  4730,  4766,  4802,  4838,  4874,  4910,  4946,  4982,  5018,  5054,  5090,  5126,  5162
  5198,  5234,  5270,  5306,  5342,  5378,  5414,  5450,  5486,  5522,  5558,  5594,  5630,  5666,  5702,  5738
  5774,  5810,  5846,  5882,  5918,  5954,  5990,  6026,  6062,  6098,  6134,  6170,  6206,  6242,  6278,  6314
  6350,  6386,  6422,  6458,  6494,  6530,  6566,  6602,  6638,  6674,  6710,  6746,  6782,  6818,  6854,  6890
  6926,  6962,  6998,  7034,  7070,  7106,  7142,  7178, 10608, 10642, 10676, 10710, 10744, 10778, 10812, 10846
 10880, 10914, 10948, 10982, 11016, 11050, 11084, 11118, 11152, 11186, 11220, 11254, 11288, 11322, 11356, 11390
 11424, 11458, 11492, 11526, 11560, 11594, 11628, 11662, 11696, 11730, 11764, 11798, 11832, 11866, 11900, 11934
 11968, 12002, 12036, 12070, 12104, 12138, 12172, 12206, 12240, 12274, 12308, 12342, 12376, 12410, 12444, 12478
 12512, 12546, 12580, 12614, 12648, 12682, 12716, 12750, 12784, 12818, 12852, 12886, 12920, 12954, 12988, 13022
 13056, 13090, 13124, 13158, 13192, 13226, 13260, 13294, 13328, 13362, 13396, 13430, 13464, 13498, 13532, 13566
 13600, 13634, 13668, 13702, 13736, 13770, 13804, 13838, 13872, 13906, 13940, 13974
*Elset, elset=_S_SURF-8_S4, internal, instance=RAIL-1, generate
  7233,  10599,     34
*Elset, elset=_S_SURF-8_S5, internal, instance=RAIL-1, generate
 10633,  13999,     34
*Elset, elset=_S_SURF-8_S6, internal, instance=RAIL-1
    14,    50,    86,   122,   158,   194,   230,   266,   302,   338,   374,   410,   446,   482,   518,   554
   590,   626,   662,   698,   734,   770,   806,   842,   878,   914,   950,   986,  1022,  1058,  1094,  1130
  1166,  1202,  1238,  1274,  1310,  1346,  1382,  1418,  1454,  1490,  1526,  1562,  1598,  1634,  1670,  1706
  1742,  1778,  1814,  1850,  1886,  1922,  1958,  1994,  2030,  2066,  2102,  2138,  2174,  2210,  2246,  2282
  2318,  2354,  2390,  2426,  2462,  2498,  2534,  2570,  2606,  2642,  2678,  2714,  2750,  2786,  2822,  2858
  2894,  2930,  2966,  3002,  3038,  3074,  3110,  3146,  3182,  3218,  3254,  3290,  3326,  3362,  3398,  3434
  3470,  3506,  3542,  3578,  3616,  3652,  3688,  3724,  3760,  3796,  3832,  3868,  3904,  3940,  3976,  4012
  4048,  4084,  4120,  4156,  4192,  4228,  4264,  4300,  4336,  4372,  4408,  4444,  4480,  4516,  4552,  4588
  4624,  4660,  4696,  4732,  4768,  4804,  4840,  4876,  4912,  4948,  4984,  5020,  5056,  5092,  5128,  5164
  5200,  5236,  5272,  5308,  5344,  5380,  5416,  5452,  5488,  5524,  5560,  5596,  5632,  5668,  5704,  5740
  5776,  5812,  5848,  5884,  5920,  5956,  5992,  6028,  6064,  6100,  6136,  6172,  6208,  6244,  6280,  6316
  6352,  6388,  6424,  6460,  6496,  6532,  6568,  6604,  6640,  6676,  6712,  6748,  6784,  6820,  6856,  6892
  6928,  6964,  7000,  7036,  7072,  7108,  7144,  7180,  7208,  7242,  7276,  7310,  7344,  7378,  7412,  7446
  7480,  7514,  7548,  7582,  7616,  7650,  7684,  7718,  7752,  7786,  7820,  7854,  7888,  7922,  7956,  7990
  8024,  8058,  8092,  8126,  8160,  8194,  8228,  8262,  8296,  8330,  8364,  8398,  8432,  8466,  8500,  8534
  8568,  8602,  8636,  8670,  8704,  8738,  8772,  8806,  8840,  8874,  8908,  8942,  8976,  9010,  9044,  9078
  9112,  9146,  9180,  9214,  9248,  9282,  9316,  9350,  9384,  9418,  9452,  9486,  9520,  9554,  9588,  9622
  9656,  9690,  9724,  9758,  9792,  9826,  9860,  9894,  9928,  9962,  9996, 10030, 10064, 10098, 10132, 10166
 10200, 10234, 10268, 10302, 10336, 10370, 10404, 10438, 10472, 10506, 10540, 10574
*Elset, elset=_S_SURF-11_S3, internal, instance=WHEEL-1
 1303, 1312, 1364, 1373, 1425, 1434, 1486, 1495, 1547, 1556, 1608, 1617, 1669, 1678, 1730, 1739
 1791, 1800, 1852, 1861, 1913, 1922, 1974, 1983, 2035, 2044, 2096, 2105, 2157, 2166, 2218, 2227
 2279, 2288, 2340, 2349, 2401, 2410, 2462, 2471, 2523, 2532, 2584, 2593, 2645, 2654, 2706, 2715
 2767, 2776, 2828, 2837, 2889, 2898, 2950, 2959, 3011, 3020, 3072, 3081, 3133, 3142, 3194, 3203
 3255, 3264, 3316, 3325, 3377, 3386, 3438, 3447, 3499, 3508, 3560, 3569, 3621, 3630, 3682, 3691
 3743, 3752, 3804, 3813, 3865, 3874, 3926, 3935, 3987, 3996, 4048, 4057, 4109, 4118, 4170, 4179
 4231, 4240, 4292, 4301, 4353, 4362, 4414, 4423, 4475, 4484, 4536, 4545, 4597, 4606, 4658, 4667
*Elset, elset=_S_SURF-11_S4, internal, instance=WHEEL-1, generate
 1311,  4666,    61
*Elset, elset=_S_SURF-11_S5, internal, instance=WHEEL-1, generate
 1329,  4684,    61
*Elset, elset=_S_SURF-11_S6, internal, instance=WHEEL-1, generate
 1332,  4687,    61
*Elset, elset=_S_SURF-13_S3, internal, instance=WHEEL-1
 1303, 1312, 1364, 1373, 1425, 1434, 1486, 1495, 1547, 1556, 1608, 1617, 1669, 1678, 1730, 1739
 1791, 1800, 1852, 1861, 1913, 1922, 1974, 1983, 2035, 2044, 2096, 2105, 2157, 2166, 2218, 2227
 2279, 2288, 2340, 2349, 2401, 2410, 2462, 2471, 2523, 2532, 2584, 2593, 2645, 2654, 2706, 2715
 2767, 2776, 2828, 2837, 2889, 2898, 2950, 2959, 3011, 3020, 3072, 3081, 3133, 3142, 3194, 3203
 3255, 3264, 3316, 3325, 3377, 3386, 3438, 3447, 3499, 3508, 3560, 3569, 3621, 3630, 3682, 3691
 3743, 3752, 3804, 3813, 3865, 3874, 3926, 3935, 3987, 3996, 4048, 4057, 4109, 4118, 4170, 4179
 4231, 4240, 4292, 4301, 4353, 4362, 4414, 4423, 4475, 4484, 4536, 4545, 4597, 4606, 4658, 4667
*Elset, elset=_S_SURF-13_S4, internal, instance=WHEEL-1, generate
 1311,  4666,    61
*Elset, elset=_S_SURF-13_S5, internal, instance=WHEEL-1, generate
 1329,  4684,    61
*Elset, elset=_S_SURF-13_S6, internal, instance=WHEEL-1, generate
 1332,  4687,    61
*Elset, elset=_S_SURF-15_S3, internal, instance=RAIL-1
    16,    52,    88,   124,   160,   196,   232,   268,   304,   340,   376,   412,   448,   484,   520,   556
   592,   628,   664,   700,   736,   772,   808,   844,   880,   916,   952,   988,  1024,  1060,  1096,  1132
  1168,  1204,  1240,  1276,  1312,  1348,  1384,  1420,  1456,  1492,  1528,  1564,  1600,  1636,  1672,  1708
  1744,  1780,  1816,  1852,  1888,  1924,  1960,  1996,  2032,  2068,  2104,  2140,  2176,  2212,  2248,  2284
  2320,  2356,  2392,  2428,  2464,  2500,  2536,  2572,  2608,  2644,  2680,  2716,  2752,  2788,  2824,  2860
  2896,  2932,  2968,  3004,  3040,  3076,  3112,  3148,  3184,  3220,  3256,  3292,  3328,  3364,  3400,  3436
  3472,  3508,  3544,  3580,  3614,  3650,  3686,  3722,  3758,  3794,  3830,  3866,  3902,  3938,  3974,  4010
  4046,  4082,  4118,  4154,  4190,  4226,  4262,  4298,  4334,  4370,  4406,  4442,  4478,  4514,  4550,  4586
  4622,  4658,  4694,  4730,  4766,  4802,  4838,  4874,  4910,  4946,  4982,  5018,  5054,  5090,  5126,  5162
  5198,  5234,  5270,  5306,  5342,  5378,  5414,  5450,  5486,  5522,  5558,  5594,  5630,  5666,  5702,  5738
  5774,  5810,  5846,  5882,  5918,  5954,  5990,  6026,  6062,  6098,  6134,  6170,  6206,  6242,  6278,  6314
  6350,  6386,  6422,  6458,  6494,  6530,  6566,  6602,  6638,  6674,  6710,  6746,  6782,  6818,  6854,  6890
  6926,  6962,  6998,  7034,  7070,  7106,  7142,  7178, 10608, 10642, 10676, 10710, 10744, 10778, 10812, 10846
 10880, 10914, 10948, 10982, 11016, 11050, 11084, 11118, 11152, 11186, 11220, 11254, 11288, 11322, 11356, 11390
 11424, 11458, 11492, 11526, 11560, 11594, 11628, 11662, 11696, 11730, 11764, 11798, 11832, 11866, 11900, 11934
 11968, 12002, 12036, 12070, 12104, 12138, 12172, 12206, 12240, 12274, 12308, 12342, 12376, 12410, 12444, 12478
 12512, 12546, 12580, 12614, 12648, 12682, 12716, 12750, 12784, 12818, 12852, 12886, 12920, 12954, 12988, 13022
 13056, 13090, 13124, 13158, 13192, 13226, 13260, 13294, 13328, 13362, 13396, 13430, 13464, 13498, 13532, 13566
 13600, 13634, 13668, 13702, 13736, 13770, 13804, 13838, 13872, 13906, 13940, 13974
*Elset, elset=_S_SURF-15_S4, internal, instance=RAIL-1, generate
  7233,  10599,     34
*Elset, elset=_S_SURF-15_S5, internal, instance=RAIL-1, generate
 10633,  13999,     34
*Elset, elset=_S_SURF-15_S6, internal, instance=RAIL-1
    14,    50,    86,   122,   158,   194,   230,   266,   302,   338,   374,   410,   446,   482,   518,   554
   590,   626,   662,   698,   734,   770,   806,   842,   878,   914,   950,   986,  1022,  1058,  1094,  1130
  1166,  1202,  1238,  1274,  1310,  1346,  1382,  1418,  1454,  1490,  1526,  1562,  1598,  1634,  1670,  1706
  1742,  1778,  1814,  1850,  1886,  1922,  1958,  1994,  2030,  2066,  2102,  2138,  2174,  2210,  2246,  2282
  2318,  2354,  2390,  2426,  2462,  2498,  2534,  2570,  2606,  2642,  2678,  2714,  2750,  2786,  2822,  2858
  2894,  2930,  2966,  3002,  3038,  3074,  3110,  3146,  3182,  3218,  3254,  3290,  3326,  3362,  3398,  3434
  3470,  3506,  3542,  3578,  3616,  3652,  3688,  3724,  3760,  3796,  3832,  3868,  3904,  3940,  3976,  4012
  4048,  4084,  4120,  4156,  4192,  4228,  4264,  4300,  4336,  4372,  4408,  4444,  4480,  4516,  4552,  4588
  4624,  4660,  4696,  4732,  4768,  4804,  4840,  4876,  4912,  4948,  4984,  5020,  5056,  5092,  5128,  5164
  5200,  5236,  5272,  5308,  5344,  5380,  5416,  5452,  5488,  5524,  5560,  5596,  5632,  5668,  5704,  5740
  5776,  5812,  5848,  5884,  5920,  5956,  5992,  6028,  6064,  6100,  6136,  6172,  6208,  6244,  6280,  6316
  6352,  6388,  6424,  6460,  6496,  6532,  6568,  6604,  6640,  6676,  6712,  6748,  6784,  6820,  6856,  6892
  6928,  6964,  7000,  7036,  7072,  7108,  7144,  7180,  7208,  7242,  7276,  7310,  7344,  7378,  7412,  7446
  7480,  7514,  7548,  7582,  7616,  7650,  7684,  7718,  7752,  7786,  7820,  7854,  7888,  7922,  7956,  7990
  8024,  8058,  8092,  8126,  8160,  8194,  8228,  8262,  8296,  8330,  8364,  8398,  8432,  8466,  8500,  8534
  8568,  8602,  8636,  8670,  8704,  8738,  8772,  8806,  8840,  8874,  8908,  8942,  8976,  9010,  9044,  9078
  9112,  9146,  9180,  9214,  9248,  9282,  9316,  9350,  9384,  9418,  9452,  9486,  9520,  9554,  9588,  9622
  9656,  9690,  9724,  9758,  9792,  9826,  9860,  9894,  9928,  9962,  9996, 10030, 10064, 10098, 10132, 10166
 10200, 10234, 10268, 10302, 10336, 10370, 10404, 10438, 10472, 10506, 10540, 10574
*Elset, elset=_S_SURF-17_S3, internal, instance=WHEEL-1
 1303, 1312, 1364, 1373, 1425, 1434, 1486, 1495, 1547, 1556, 1608, 1617, 1669, 1678, 1730, 1739
 1791, 1800, 1852, 1861, 1913, 1922, 1974, 1983, 2035, 2044, 2096, 2105, 2157, 2166, 2218, 2227
 2279, 2288, 2340, 2349, 2401, 2410, 2462, 2471, 2523, 2532, 2584, 2593, 2645, 2654, 2706, 2715
 2767, 2776, 2828, 2837, 2889, 2898, 2950, 2959, 3011, 3020, 3072, 3081, 3133, 3142, 3194, 3203
 3255, 3264, 3316, 3325, 3377, 3386, 3438, 3447, 3499, 3508, 3560, 3569, 3621, 3630, 3682, 3691
 3743, 3752, 3804, 3813, 3865, 3874, 3926, 3935, 3987, 3996, 4048, 4057, 4109, 4118, 4170, 4179
 4231, 4240, 4292, 4301, 4353, 4362, 4414, 4423, 4475, 4484, 4536, 4545, 4597, 4606, 4658, 4667
*Elset, elset=_S_SURF-17_S4, internal, instance=WHEEL-1, generate
 1311,  4666,    61
*Elset, elset=_S_SURF-17_S5, internal, instance=WHEEL-1, generate
 1329,  4684,    61
*Elset, elset=_S_SURF-17_S6, internal, instance=WHEEL-1, generate
 1332,  4687,    61
*Elset, elset=_S_SURF-19_S3, internal, instance=WHEEL-1
 1303, 1312, 1364, 1373, 1425, 1434, 1486, 1495, 1547, 1556, 1608, 1617, 1669, 1678, 1730, 1739
 1791, 1800, 1852, 1861, 1913, 1922, 1974, 1983, 2035, 2044, 2096, 2105, 2157, 2166, 2218, 2227
 2279, 2288, 2340, 2349, 2401, 2410, 2462, 2471, 2523, 2532, 2584, 2593, 2645, 2654, 2706, 2715
 2767, 2776, 2828, 2837, 2889, 2898, 2950, 2959, 3011, 3020, 3072, 3081, 3133, 3142, 3194, 3203
 3255, 3264, 3316, 3325, 3377, 3386, 3438, 3447, 3499, 3508, 3560, 3569, 3621, 3630, 3682, 3691
 3743, 3752, 3804, 3813, 3865, 3874, 3926, 3935, 3987, 3996, 4048, 4057, 4109, 4118, 4170, 4179
 4231, 4240, 4292, 4301, 4353, 4362, 4414, 4423, 4475, 4484, 4536, 4545, 4597, 4606, 4658, 4667
*Elset, elset=_S_SURF-19_S4, internal, instance=WHEEL-1, generate
 1311,  4666,    61
*Elset, elset=_S_SURF-19_S5, internal, instance=WHEEL-1, generate
 1329,  4684,    61
*Elset, elset=_S_SURF-19_S6, internal, instance=WHEEL-1, generate
 1332,  4687,    61
*Elset, elset=_S_SURF-21_S3, internal, instance=RAIL-1
    16,    52,    88,   124,   160,   196,   232,   268,   304,   340,   376,   412,   448,   484,   520,   556
   592,   628,   664,   700,   736,   772,   808,   844,   880,   916,   952,   988,  1024,  1060,  1096,  1132
  1168,  1204,  1240,  1276,  1312,  1348,  1384,  1420,  1456,  1492,  1528,  1564,  1600,  1636,  1672,  1708
  1744,  1780,  1816,  1852,  1888,  1924,  1960,  1996,  2032,  2068,  2104,  2140,  2176,  2212,  2248,  2284
  2320,  2356,  2392,  2428,  2464,  2500,  2536,  2572,  2608,  2644,  2680,  2716,  2752,  2788,  2824,  2860
  2896,  2932,  2968,  3004,  3040,  3076,  3112,  3148,  3184,  3220,  3256,  3292,  3328,  3364,  3400,  3436
  3472,  3508,  3544,  3580,  3614,  3650,  3686,  3722,  3758,  3794,  3830,  3866,  3902,  3938,  3974,  4010
  4046,  4082,  4118,  4154,  4190,  4226,  4262,  4298,  4334,  4370,  4406,  4442,  4478,  4514,  4550,  4586
  4622,  4658,  4694,  4730,  4766,  4802,  4838,  4874,  4910,  4946,  4982,  5018,  5054,  5090,  5126,  5162
  5198,  5234,  5270,  5306,  5342,  5378,  5414,  5450,  5486,  5522,  5558,  5594,  5630,  5666,  5702,  5738
  5774,  5810,  5846,  5882,  5918,  5954,  5990,  6026,  6062,  6098,  6134,  6170,  6206,  6242,  6278,  6314
  6350,  6386,  6422,  6458,  6494,  6530,  6566,  6602,  6638,  6674,  6710,  6746,  6782,  6818,  6854,  6890
  6926,  6962,  6998,  7034,  7070,  7106,  7142,  7178, 10608, 10642, 10676, 10710, 10744, 10778, 10812, 10846
 10880, 10914, 10948, 10982, 11016, 11050, 11084, 11118, 11152, 11186, 11220, 11254, 11288, 11322, 11356, 11390
 11424, 11458, 11492, 11526, 11560, 11594, 11628, 11662, 11696, 11730, 11764, 11798, 11832, 11866, 11900, 11934
 11968, 12002, 12036, 12070, 12104, 12138, 12172, 12206, 12240, 12274, 12308, 12342, 12376, 12410, 12444, 12478
 12512, 12546, 12580, 12614, 12648, 12682, 12716, 12750, 12784, 12818, 12852, 12886, 12920, 12954, 12988, 13022
 13056, 13090, 13124, 13158, 13192, 13226, 13260, 13294, 13328, 13362, 13396, 13430, 13464, 13498, 13532, 13566
 13600, 13634, 13668, 13702, 13736, 13770, 13804, 13838, 13872, 13906, 13940, 13974
*Elset, elset=_S_SURF-21_S4, internal, instance=RAIL-1, generate
  7233,  10599,     34
*Elset, elset=_S_SURF-21_S5, internal, instance=RAIL-1, generate
 10633,  13999,     34
*Elset, elset=_S_SURF-21_S6, internal, instance=RAIL-1
    14,    50,    86,   122,   158,   194,   230,   266,   302,   338,   374,   410,   446,   482,   518,   554
   590,   626,   662,   698,   734,   770,   806,   842,   878,   914,   950,   986,  1022,  1058,  1094,  1130
  1166,  1202,  1238,  1274,  1310,  1346,  1382,  1418,  1454,  1490,  1526,  1562,  1598,  1634,  1670,  1706
  1742,  1778,  1814,  1850,  1886,  1922,  1958,  1994,  2030,  2066,  2102,  2138,  2174,  2210,  2246,  2282
  2318,  2354,  2390,  2426,  2462,  2498,  2534,  2570,  2606,  2642,  2678,  2714,  2750,  2786,  2822,  2858
  2894,  2930,  2966,  3002,  3038,  3074,  3110,  3146,  3182,  3218,  3254,  3290,  3326,  3362,  3398,  3434
  3470,  3506,  3542,  3578,  3616,  3652,  3688,  3724,  3760,  3796,  3832,  3868,  3904,  3940,  3976,  4012
  4048,  4084,  4120,  4156,  4192,  4228,  4264,  4300,  4336,  4372,  4408,  4444,  4480,  4516,  4552,  4588
  4624,  4660,  4696,  4732,  4768,  4804,  4840,  4876,  4912,  4948,  4984,  5020,  5056,  5092,  5128,  5164
  5200,  5236,  5272,  5308,  5344,  5380,  5416,  5452,  5488,  5524,  5560,  5596,  5632,  5668,  5704,  5740
  5776,  5812,  5848,  5884,  5920,  5956,  5992,  6028,  6064,  6100,  6136,  6172,  6208,  6244,  6280,  6316
  6352,  6388,  6424,  6460,  6496,  6532,  6568,  6604,  6640,  6676,  6712,  6748,  6784,  6820,  6856,  6892
  6928,  6964,  7000,  7036,  7072,  7108,  7144,  7180,  7208,  7242,  7276,  7310,  7344,  7378,  7412,  7446
  7480,  7514,  7548,  7582,  7616,  7650,  7684,  7718,  7752,  7786,  7820,  7854,  7888,  7922,  7956,  7990
  8024,  8058,  8092,  8126,  8160,  8194,  8228,  8262,  8296,  8330,  8364,  8398,  8432,  8466,  8500,  8534
  8568,  8602,  8636,  8670,  8704,  8738,  8772,  8806,  8840,  8874,  8908,  8942,  8976,  9010,  9044,  9078
  9112,  9146,  9180,  9214,  9248,  9282,  9316,  9350,  9384,  9418,  9452,  9486,  9520,  9554,  9588,  9622
  9656,  9690,  9724,  9758,  9792,  9826,  9860,  9894,  9928,  9962,  9996, 10030, 10064, 10098, 10132, 10166
 10200, 10234, 10268, 10302, 10336, 10370, 10404, 10438, 10472, 10506, 10540, 10574
*Elset, elset=_S_SURF-23_S1, internal, instance=BRAKE-1-RAD-2, generate
   1,  108,    1
*Elset, elset=_S_SURF-23_S2, internal, instance=BRAKE-1-RAD-2, generate
   1,  108,    1
*Elset, elset=_S_SURF-23_S4, internal, instance=BRAKE-1-RAD-2, generate
  18,  108,   18
*Elset, elset=_S_SURF-23_S5, internal, instance=BRAKE-1-RAD-2
  37,  38,  39,  40,  41,  42,  43,  44,  45,  46,  47,  48,  49,  50,  51,  52
  53,  54,  91,  92,  93,  94,  95,  96,  97,  98,  99, 100, 101, 102, 103, 104
 105, 106, 107, 108
*Elset, elset=_S_SURF-23_S6, internal, instance=BRAKE-1-RAD-2, generate
  1,  91,  18
*Elset, elset=_S_SURF-24_S1, internal, instance=BRAKE-1, generate
   1,  108,    1
*Elset, elset=_S_SURF-24_S2, internal, instance=BRAKE-1, generate
   1,  108,    1
*Elset, elset=_S_SURF-24_S4, internal, instance=BRAKE-1, generate
  18,  108,   18
*Elset, elset=_S_SURF-24_S5, internal, instance=BRAKE-1
  37,  38,  39,  40,  41,  42,  43,  44,  45,  46,  47,  48,  49,  50,  51,  52
  53,  54,  91,  92,  93,  94,  95,  96,  97,  98,  99, 100, 101, 102, 103, 104
 105, 106, 107, 108
*Elset, elset=_S_SURF-24_S6, internal, instance=BRAKE-1, generate
  1,  91,  18
*Surface, type=ELEMENT, name=M_SURF-5
_M_SURF-5_S1, S1
*Surface, type=ELEMENT, name=M_SURF-6
_M_SURF-6_S1, S1
*Elset, elset=_M_SURF-8_S3_1, internal, instance=WHEEL-1
 1303, 1312, 1364, 1373, 1425, 1434, 1486, 1495, 1547, 1556, 1608, 1617, 1669, 1678, 1730, 1739
 1791, 1800, 1852, 1861, 1913, 1922, 1974, 1983, 2035, 2044, 2096, 2105, 2157, 2166, 2218, 2227
 2279, 2288, 2340, 2349, 2401, 2410, 2462, 2471, 2523, 2532, 2584, 2593, 2645, 2654, 2706, 2715
 2767, 2776, 2828, 2837, 2889, 2898, 2950, 2959, 3011, 3020, 3072, 3081, 3133, 3142, 3194, 3203
 3255, 3264, 3316, 3325, 3377, 3386, 3438, 3447, 3499, 3508, 3560, 3569, 3621, 3630, 3682, 3691
 3743, 3752, 3804, 3813, 3865, 3874, 3926, 3935, 3987, 3996, 4048, 4057, 4109, 4118, 4170, 4179
 4231, 4240, 4292, 4301, 4353, 4362, 4414, 4423, 4475, 4484, 4536, 4545, 4597, 4606, 4658, 4667
*Elset, elset=_M_SURF-8_S4_1, internal, instance=WHEEL-1, generate
 1311,  4666,    61
*Elset, elset=_M_SURF-8_S6_1, internal, instance=WHEEL-1, generate
 1332,  4687,    61
*Elset, elset=_M_SURF-8_S5_1, internal, instance=WHEEL-1, generate
 1329,  4684,    61
*Surface, type=ELEMENT, name=M_SURF-8
_M_SURF-8_S3_1, S3
_M_SURF-8_S4_1, S4
_M_SURF-8_S6_1, S6
_M_SURF-8_S5_1, S5
*Surface, type=ELEMENT, name=M_SURF-11
_M_SURF-11_S1, S1
*Surface, type=ELEMENT, name=M_SURF-13
_M_SURF-13_S1, S1
*Elset, elset=_M_SURF-15_S3_1, internal, instance=WHEEL-1
 1303, 1312, 1364, 1373, 1425, 1434, 1486, 1495, 1547, 1556, 1608, 1617, 1669, 1678, 1730, 1739
 1791, 1800, 1852, 1861, 1913, 1922, 1974, 1983, 2035, 2044, 2096, 2105, 2157, 2166, 2218, 2227
 2279, 2288, 2340, 2349, 2401, 2410, 2462, 2471, 2523, 2532, 2584, 2593, 2645, 2654, 2706, 2715
 2767, 2776, 2828, 2837, 2889, 2898, 2950, 2959, 3011, 3020, 3072, 3081, 3133, 3142, 3194, 3203
 3255, 3264, 3316, 3325, 3377, 3386, 3438, 3447, 3499, 3508, 3560, 3569, 3621, 3630, 3682, 3691
 3743, 3752, 3804, 3813, 3865, 3874, 3926, 3935, 3987, 3996, 4048, 4057, 4109, 4118, 4170, 4179
 4231, 4240, 4292, 4301, 4353, 4362, 4414, 4423, 4475, 4484, 4536, 4545, 4597, 4606, 4658, 4667
*Elset, elset=_M_SURF-15_S4_1, internal, instance=WHEEL-1, generate
 1311,  4666,    61
*Elset, elset=_M_SURF-15_S6_1, internal, instance=WHEEL-1, generate
 1332,  4687,    61
*Elset, elset=_M_SURF-15_S5_1, internal, instance=WHEEL-1, generate
 1329,  4684,    61
*Surface, type=ELEMENT, name=M_SURF-15
_M_SURF-15_S3_1, S3
_M_SURF-15_S4_1, S4
_M_SURF-15_S6_1, S6
_M_SURF-15_S5_1, S5
*Surface, type=ELEMENT, name=M_SURF-17
_M_SURF-17_S1, S1
*Surface, type=ELEMENT, name=M_SURF-19
_M_SURF-19_S1, S1
*Elset, elset=_M_SURF-21_S3_1, internal, instance=WHEEL-1
 1303, 1312, 1364, 1373, 1425, 1434, 1486, 1495, 1547, 1556, 1608, 1617, 1669, 1678, 1730, 1739
 1791, 1800, 1852, 1861, 1913, 1922, 1974, 1983, 2035, 2044, 2096, 2105, 2157, 2166, 2218, 2227
 2279, 2288, 2340, 2349, 2401, 2410, 2462, 2471, 2523, 2532, 2584, 2593, 2645, 2654, 2706, 2715
 2767, 2776, 2828, 2837, 2889, 2898, 2950, 2959, 3011, 3020, 3072, 3081, 3133, 3142, 3194, 3203
 3255, 3264, 3316, 3325, 3377, 3386, 3438, 3447, 3499, 3508, 3560, 3569, 3621, 3630, 3682, 3691
 3743, 3752, 3804, 3813, 3865, 3874, 3926, 3935, 3987, 3996, 4048, 4057, 4109, 4118, 4170, 4179
 4231, 4240, 4292, 4301, 4353, 4362, 4414, 4423, 4475, 4484, 4536, 4545, 4597, 4606, 4658, 4667
*Elset, elset=_M_SURF-21_S4_1, internal, instance=WHEEL-1, generate
 1311,  4666,    61
*Elset, elset=_M_SURF-21_S6_1, internal, instance=WHEEL-1, generate
 1332,  4687,    61
*Elset, elset=_M_SURF-21_S5_1, internal, instance=WHEEL-1, generate
 1329,  4684,    61
*Surface, type=ELEMENT, name=M_SURF-21
_M_SURF-21_S3_1, S3
_M_SURF-21_S4_1, S4
_M_SURF-21_S6_1, S6
_M_SURF-21_S5_1, S5
*Surface, type=ELEMENT, name=SURF-7
_SURF-7_S2, S2
*Surface, type=ELEMENT, name=SURF-10
_SURF-10_S2, S2
*Elset, elset=_S_SURF-8_S6_1, internal, instance=RAIL-1
    14,    50,    86,   122,   158,   194,   230,   266,   302,   338,   374,   410,   446,   482,   518,   554
   590,   626,   662,   698,   734,   770,   806,   842,   878,   914,   950,   986,  1022,  1058,  1094,  1130
  1166,  1202,  1238,  1274,  1310,  1346,  1382,  1418,  1454,  1490,  1526,  1562,  1598,  1634,  1670,  1706
  1742,  1778,  1814,  1850,  1886,  1922,  1958,  1994,  2030,  2066,  2102,  2138,  2174,  2210,  2246,  2282
  2318,  2354,  2390,  2426,  2462,  2498,  2534,  2570,  2606,  2642,  2678,  2714,  2750,  2786,  2822,  2858
  2894,  2930,  2966,  3002,  3038,  3074,  3110,  3146,  3182,  3218,  3254,  3290,  3326,  3362,  3398,  3434
  3470,  3506,  3542,  3578,  3616,  3652,  3688,  3724,  3760,  3796,  3832,  3868,  3904,  3940,  3976,  4012
  4048,  4084,  4120,  4156,  4192,  4228,  4264,  4300,  4336,  4372,  4408,  4444,  4480,  4516,  4552,  4588
  4624,  4660,  4696,  4732,  4768,  4804,  4840,  4876,  4912,  4948,  4984,  5020,  5056,  5092,  5128,  5164
  5200,  5236,  5272,  5308,  5344,  5380,  5416,  5452,  5488,  5524,  5560,  5596,  5632,  5668,  5704,  5740
  5776,  5812,  5848,  5884,  5920,  5956,  5992,  6028,  6064,  6100,  6136,  6172,  6208,  6244,  6280,  6316
  6352,  6388,  6424,  6460,  6496,  6532,  6568,  6604,  6640,  6676,  6712,  6748,  6784,  6820,  6856,  6892
  6928,  6964,  7000,  7036,  7072,  7108,  7144,  7180,  7208,  7242,  7276,  7310,  7344,  7378,  7412,  7446
  7480,  7514,  7548,  7582,  7616,  7650,  7684,  7718,  7752,  7786,  7820,  7854,  7888,  7922,  7956,  7990
  8024,  8058,  8092,  8126,  8160,  8194,  8228,  8262,  8296,  8330,  8364,  8398,  8432,  8466,  8500,  8534
  8568,  8602,  8636,  8670,  8704,  8738,  8772,  8806,  8840,  8874,  8908,  8942,  8976,  9010,  9044,  9078
  9112,  9146,  9180,  9214,  9248,  9282,  9316,  9350,  9384,  9418,  9452,  9486,  9520,  9554,  9588,  9622
  9656,  9690,  9724,  9758,  9792,  9826,  9860,  9894,  9928,  9962,  9996, 10030, 10064, 10098, 10132, 10166
 10200, 10234, 10268, 10302, 10336, 10370, 10404, 10438, 10472, 10506, 10540, 10574
*Elset, elset=_S_SURF-8_S4_1, internal, instance=RAIL-1, generate
  7233,  10599,     34
*Elset, elset=_S_SURF-8_S3_1, internal, instance=RAIL-1
    16,    52,    88,   124,   160,   196,   232,   268,   304,   340,   376,   412,   448,   484,   520,   556
   592,   628,   664,   700,   736,   772,   808,   844,   880,   916,   952,   988,  1024,  1060,  1096,  1132
  1168,  1204,  1240,  1276,  1312,  1348,  1384,  1420,  1456,  1492,  1528,  1564,  1600,  1636,  1672,  1708
  1744,  1780,  1816,  1852,  1888,  1924,  1960,  1996,  2032,  2068,  2104,  2140,  2176,  2212,  2248,  2284
  2320,  2356,  2392,  2428,  2464,  2500,  2536,  2572,  2608,  2644,  2680,  2716,  2752,  2788,  2824,  2860
  2896,  2932,  2968,  3004,  3040,  3076,  3112,  3148,  3184,  3220,  3256,  3292,  3328,  3364,  3400,  3436
  3472,  3508,  3544,  3580,  3614,  3650,  3686,  3722,  3758,  3794,  3830,  3866,  3902,  3938,  3974,  4010
  4046,  4082,  4118,  4154,  4190,  4226,  4262,  4298,  4334,  4370,  4406,  4442,  4478,  4514,  4550,  4586
  4622,  4658,  4694,  4730,  4766,  4802,  4838,  4874,  4910,  4946,  4982,  5018,  5054,  5090,  5126,  5162
  5198,  5234,  5270,  5306,  5342,  5378,  5414,  5450,  5486,  5522,  5558,  5594,  5630,  5666,  5702,  5738
  5774,  5810,  5846,  5882,  5918,  5954,  5990,  6026,  6062,  6098,  6134,  6170,  6206,  6242,  6278,  6314
  6350,  6386,  6422,  6458,  6494,  6530,  6566,  6602,  6638,  6674,  6710,  6746,  6782,  6818,  6854,  6890
  6926,  6962,  6998,  7034,  7070,  7106,  7142,  7178, 10608, 10642, 10676, 10710, 10744, 10778, 10812, 10846
 10880, 10914, 10948, 10982, 11016, 11050, 11084, 11118, 11152, 11186, 11220, 11254, 11288, 11322, 11356, 11390
 11424, 11458, 11492, 11526, 11560, 11594, 11628, 11662, 11696, 11730, 11764, 11798, 11832, 11866, 11900, 11934
 11968, 12002, 12036, 12070, 12104, 12138, 12172, 12206, 12240, 12274, 12308, 12342, 12376, 12410, 12444, 12478
 12512, 12546, 12580, 12614, 12648, 12682, 12716, 12750, 12784, 12818, 12852, 12886, 12920, 12954, 12988, 13022
 13056, 13090, 13124, 13158, 13192, 13226, 13260, 13294, 13328, 13362, 13396, 13430, 13464, 13498, 13532, 13566
 13600, 13634, 13668, 13702, 13736, 13770, 13804, 13838, 13872, 13906, 13940, 13974
*Elset, elset=_S_SURF-8_S5_1, internal, instance=RAIL-1, generate
 10633,  13999,     34
*Surface, type=ELEMENT, name=S_SURF-8
_S_SURF-8_S6_1, S6
_S_SURF-8_S4_1, S4
_S_SURF-8_S3_1, S3
_S_SURF-8_S5_1, S5
*Elset, elset=_S_SURF-11_S3_1, internal, instance=WHEEL-1
 1303, 1312, 1364, 1373, 1425, 1434, 1486, 1495, 1547, 1556, 1608, 1617, 1669, 1678, 1730, 1739
 1791, 1800, 1852, 1861, 1913, 1922, 1974, 1983, 2035, 2044, 2096, 2105, 2157, 2166, 2218, 2227
 2279, 2288, 2340, 2349, 2401, 2410, 2462, 2471, 2523, 2532, 2584, 2593, 2645, 2654, 2706, 2715
 2767, 2776, 2828, 2837, 2889, 2898, 2950, 2959, 3011, 3020, 3072, 3081, 3133, 3142, 3194, 3203
 3255, 3264, 3316, 3325, 3377, 3386, 3438, 3447, 3499, 3508, 3560, 3569, 3621, 3630, 3682, 3691
 3743, 3752, 3804, 3813, 3865, 3874, 3926, 3935, 3987, 3996, 4048, 4057, 4109, 4118, 4170, 4179
 4231, 4240, 4292, 4301, 4353, 4362, 4414, 4423, 4475, 4484, 4536, 4545, 4597, 4606, 4658, 4667
*Elset, elset=_S_SURF-11_S4_1, internal, instance=WHEEL-1, generate
 1311,  4666,    61
*Elset, elset=_S_SURF-11_S6_1, internal, instance=WHEEL-1, generate
 1332,  4687,    61
*Elset, elset=_S_SURF-11_S5_1, internal, instance=WHEEL-1, generate
 1329,  4684,    61
*Surface, type=ELEMENT, name=S_SURF-11
_S_SURF-11_S3_1, S3
_S_SURF-11_S4_1, S4
_S_SURF-11_S6_1, S6
_S_SURF-11_S5_1, S5
*Elset, elset=_S_SURF-13_S3_1, internal, instance=WHEEL-1
 1303, 1312, 1364, 1373, 1425, 1434, 1486, 1495, 1547, 1556, 1608, 1617, 1669, 1678, 1730, 1739
 1791, 1800, 1852, 1861, 1913, 1922, 1974, 1983, 2035, 2044, 2096, 2105, 2157, 2166, 2218, 2227
 2279, 2288, 2340, 2349, 2401, 2410, 2462, 2471, 2523, 2532, 2584, 2593, 2645, 2654, 2706, 2715
 2767, 2776, 2828, 2837, 2889, 2898, 2950, 2959, 3011, 3020, 3072, 3081, 3133, 3142, 3194, 3203
 3255, 3264, 3316, 3325, 3377, 3386, 3438, 3447, 3499, 3508, 3560, 3569, 3621, 3630, 3682, 3691
 3743, 3752, 3804, 3813, 3865, 3874, 3926, 3935, 3987, 3996, 4048, 4057, 4109, 4118, 4170, 4179
 4231, 4240, 4292, 4301, 4353, 4362, 4414, 4423, 4475, 4484, 4536, 4545, 4597, 4606, 4658, 4667
*Elset, elset=_S_SURF-13_S4_1, internal, instance=WHEEL-1, generate
 1311,  4666,    61
*Elset, elset=_S_SURF-13_S6_1, internal, instance=WHEEL-1, generate
 1332,  4687,    61
*Elset, elset=_S_SURF-13_S5_1, internal, instance=WHEEL-1, generate
 1329,  4684,    61
*Surface, type=ELEMENT, name=S_SURF-13
_S_SURF-13_S3_1, S3
_S_SURF-13_S4_1, S4
_S_SURF-13_S6_1, S6
_S_SURF-13_S5_1, S5
*Elset, elset=_S_SURF-15_S6_1, internal, instance=RAIL-1
    14,    50,    86,   122,   158,   194,   230,   266,   302,   338,   374,   410,   446,   482,   518,   554
   590,   626,   662,   698,   734,   770,   806,   842,   878,   914,   950,   986,  1022,  1058,  1094,  1130
  1166,  1202,  1238,  1274,  1310,  1346,  1382,  1418,  1454,  1490,  1526,  1562,  1598,  1634,  1670,  1706
  1742,  1778,  1814,  1850,  1886,  1922,  1958,  1994,  2030,  2066,  2102,  2138,  2174,  2210,  2246,  2282
  2318,  2354,  2390,  2426,  2462,  2498,  2534,  2570,  2606,  2642,  2678,  2714,  2750,  2786,  2822,  2858
  2894,  2930,  2966,  3002,  3038,  3074,  3110,  3146,  3182,  3218,  3254,  3290,  3326,  3362,  3398,  3434
  3470,  3506,  3542,  3578,  3616,  3652,  3688,  3724,  3760,  3796,  3832,  3868,  3904,  3940,  3976,  4012
  4048,  4084,  4120,  4156,  4192,  4228,  4264,  4300,  4336,  4372,  4408,  4444,  4480,  4516,  4552,  4588
  4624,  4660,  4696,  4732,  4768,  4804,  4840,  4876,  4912,  4948,  4984,  5020,  5056,  5092,  5128,  5164
  5200,  5236,  5272,  5308,  5344,  5380,  5416,  5452,  5488,  5524,  5560,  5596,  5632,  5668,  5704,  5740
  5776,  5812,  5848,  5884,  5920,  5956,  5992,  6028,  6064,  6100,  6136,  6172,  6208,  6244,  6280,  6316
  6352,  6388,  6424,  6460,  6496,  6532,  6568,  6604,  6640,  6676,  6712,  6748,  6784,  6820,  6856,  6892
  6928,  6964,  7000,  7036,  7072,  7108,  7144,  7180,  7208,  7242,  7276,  7310,  7344,  7378,  7412,  7446
  7480,  7514,  7548,  7582,  7616,  7650,  7684,  7718,  7752,  7786,  7820,  7854,  7888,  7922,  7956,  7990
  8024,  8058,  8092,  8126,  8160,  8194,  8228,  8262,  8296,  8330,  8364,  8398,  8432,  8466,  8500,  8534
  8568,  8602,  8636,  8670,  8704,  8738,  8772,  8806,  8840,  8874,  8908,  8942,  8976,  9010,  9044,  9078
  9112,  9146,  9180,  9214,  9248,  9282,  9316,  9350,  9384,  9418,  9452,  9486,  9520,  9554,  9588,  9622
  9656,  9690,  9724,  9758,  9792,  9826,  9860,  9894,  9928,  9962,  9996, 10030, 10064, 10098, 10132, 10166
 10200, 10234, 10268, 10302, 10336, 10370, 10404, 10438, 10472, 10506, 10540, 10574
*Elset, elset=_S_SURF-15_S4_1, internal, instance=RAIL-1, generate
  7233,  10599,     34
*Elset, elset=_S_SURF-15_S3_1, internal, instance=RAIL-1
    16,    52,    88,   124,   160,   196,   232,   268,   304,   340,   376,   412,   448,   484,   520,   556
   592,   628,   664,   700,   736,   772,   808,   844,   880,   916,   952,   988,  1024,  1060,  1096,  1132
  1168,  1204,  1240,  1276,  1312,  1348,  1384,  1420,  1456,  1492,  1528,  1564,  1600,  1636,  1672,  1708
  1744,  1780,  1816,  1852,  1888,  1924,  1960,  1996,  2032,  2068,  2104,  2140,  2176,  2212,  2248,  2284
  2320,  2356,  2392,  2428,  2464,  2500,  2536,  2572,  2608,  2644,  2680,  2716,  2752,  2788,  2824,  2860
  2896,  2932,  2968,  3004,  3040,  3076,  3112,  3148,  3184,  3220,  3256,  3292,  3328,  3364,  3400,  3436
  3472,  3508,  3544,  3580,  3614,  3650,  3686,  3722,  3758,  3794,  3830,  3866,  3902,  3938,  3974,  4010
  4046,  4082,  4118,  4154,  4190,  4226,  4262,  4298,  4334,  4370,  4406,  4442,  4478,  4514,  4550,  4586
  4622,  4658,  4694,  4730,  4766,  4802,  4838,  4874,  4910,  4946,  4982,  5018,  5054,  5090,  5126,  5162
  5198,  5234,  5270,  5306,  5342,  5378,  5414,  5450,  5486,  5522,  5558,  5594,  5630,  5666,  5702,  5738
  5774,  5810,  5846,  5882,  5918,  5954,  5990,  6026,  6062,  6098,  6134,  6170,  6206,  6242,  6278,  6314
  6350,  6386,  6422,  6458,  6494,  6530,  6566,  6602,  6638,  6674,  6710,  6746,  6782,  6818,  6854,  6890
  6926,  6962,  6998,  7034,  7070,  7106,  7142,  7178, 10608, 10642, 10676, 10710, 10744, 10778, 10812, 10846
 10880, 10914, 10948, 10982, 11016, 11050, 11084, 11118, 11152, 11186, 11220, 11254, 11288, 11322, 11356, 11390
 11424, 11458, 11492, 11526, 11560, 11594, 11628, 11662, 11696, 11730, 11764, 11798, 11832, 11866, 11900, 11934
 11968, 12002, 12036, 12070, 12104, 12138, 12172, 12206, 12240, 12274, 12308, 12342, 12376, 12410, 12444, 12478
 12512, 12546, 12580, 12614, 12648, 12682, 12716, 12750, 12784, 12818, 12852, 12886, 12920, 12954, 12988, 13022
 13056, 13090, 13124, 13158, 13192, 13226, 13260, 13294, 13328, 13362, 13396, 13430, 13464, 13498, 13532, 13566
 13600, 13634, 13668, 13702, 13736, 13770, 13804, 13838, 13872, 13906, 13940, 13974
*Elset, elset=_S_SURF-15_S5_1, internal, instance=RAIL-1, generate
 10633,  13999,     34
*Surface, type=ELEMENT, name=S_SURF-15
_S_SURF-15_S6_1, S6
_S_SURF-15_S4_1, S4
_S_SURF-15_S3_1, S3
_S_SURF-15_S5_1, S5
*Elset, elset=_S_SURF-17_S3_1, internal, instance=WHEEL-1
 1303, 1312, 1364, 1373, 1425, 1434, 1486, 1495, 1547, 1556, 1608, 1617, 1669, 1678, 1730, 1739
 1791, 1800, 1852, 1861, 1913, 1922, 1974, 1983, 2035, 2044, 2096, 2105, 2157, 2166, 2218, 2227
 2279, 2288, 2340, 2349, 2401, 2410, 2462, 2471, 2523, 2532, 2584, 2593, 2645, 2654, 2706, 2715
 2767, 2776, 2828, 2837, 2889, 2898, 2950, 2959, 3011, 3020, 3072, 3081, 3133, 3142, 3194, 3203
 3255, 3264, 3316, 3325, 3377, 3386, 3438, 3447, 3499, 3508, 3560, 3569, 3621, 3630, 3682, 3691
 3743, 3752, 3804, 3813, 3865, 3874, 3926, 3935, 3987, 3996, 4048, 4057, 4109, 4118, 4170, 4179
 4231, 4240, 4292, 4301, 4353, 4362, 4414, 4423, 4475, 4484, 4536, 4545, 4597, 4606, 4658, 4667
*Elset, elset=_S_SURF-17_S4_1, internal, instance=WHEEL-1, generate
 1311,  4666,    61
*Elset, elset=_S_SURF-17_S6_1, internal, instance=WHEEL-1, generate
 1332,  4687,    61
*Elset, elset=_S_SURF-17_S5_1, internal, instance=WHEEL-1, generate
 1329,  4684,    61
*Surface, type=ELEMENT, name=S_SURF-17
_S_SURF-17_S3_1, S3
_S_SURF-17_S4_1, S4
_S_SURF-17_S6_1, S6
_S_SURF-17_S5_1, S5
*Elset, elset=_S_SURF-19_S3_1, internal, instance=WHEEL-1
 1303, 1312, 1364, 1373, 1425, 1434, 1486, 1495, 1547, 1556, 1608, 1617, 1669, 1678, 1730, 1739
 1791, 1800, 1852, 1861, 1913, 1922, 1974, 1983, 2035, 2044, 2096, 2105, 2157, 2166, 2218, 2227
 2279, 2288, 2340, 2349, 2401, 2410, 2462, 2471, 2523, 2532, 2584, 2593, 2645, 2654, 2706, 2715
 2767, 2776, 2828, 2837, 2889, 2898, 2950, 2959, 3011, 3020, 3072, 3081, 3133, 3142, 3194, 3203
 3255, 3264, 3316, 3325, 3377, 3386, 3438, 3447, 3499, 3508, 3560, 3569, 3621, 3630, 3682, 3691
 3743, 3752, 3804, 3813, 3865, 3874, 3926, 3935, 3987, 3996, 4048, 4057, 4109, 4118, 4170, 4179
 4231, 4240, 4292, 4301, 4353, 4362, 4414, 4423, 4475, 4484, 4536, 4545, 4597, 4606, 4658, 4667
*Elset, elset=_S_SURF-19_S4_1, internal, instance=WHEEL-1, generate
 1311,  4666,    61
*Elset, elset=_S_SURF-19_S6_1, internal, instance=WHEEL-1, generate
 1332,  4687,    61
*Elset, elset=_S_SURF-19_S5_1, internal, instance=WHEEL-1, generate
 1329,  4684,    61
*Surface, type=ELEMENT, name=S_SURF-19
_S_SURF-19_S3_1, S3
_S_SURF-19_S4_1, S4
_S_SURF-19_S6_1, S6
_S_SURF-19_S5_1, S5
*Elset, elset=_S_SURF-21_S6_1, internal, instance=RAIL-1
    14,    50,    86,   122,   158,   194,   230,   266,   302,   338,   374,   410,   446,   482,   518,   554
   590,   626,   662,   698,   734,   770,   806,   842,   878,   914,   950,   986,  1022,  1058,  1094,  1130
  1166,  1202,  1238,  1274,  1310,  1346,  1382,  1418,  1454,  1490,  1526,  1562,  1598,  1634,  1670,  1706
  1742,  1778,  1814,  1850,  1886,  1922,  1958,  1994,  2030,  2066,  2102,  2138,  2174,  2210,  2246,  2282
  2318,  2354,  2390,  2426,  2462,  2498,  2534,  2570,  2606,  2642,  2678,  2714,  2750,  2786,  2822,  2858
  2894,  2930,  2966,  3002,  3038,  3074,  3110,  3146,  3182,  3218,  3254,  3290,  3326,  3362,  3398,  3434
  3470,  3506,  3542,  3578,  3616,  3652,  3688,  3724,  3760,  3796,  3832,  3868,  3904,  3940,  3976,  4012
  4048,  4084,  4120,  4156,  4192,  4228,  4264,  4300,  4336,  4372,  4408,  4444,  4480,  4516,  4552,  4588
  4624,  4660,  4696,  4732,  4768,  4804,  4840,  4876,  4912,  4948,  4984,  5020,  5056,  5092,  5128,  5164
  5200,  5236,  5272,  5308,  5344,  5380,  5416,  5452,  5488,  5524,  5560,  5596,  5632,  5668,  5704,  5740
  5776,  5812,  5848,  5884,  5920,  5956,  5992,  6028,  6064,  6100,  6136,  6172,  6208,  6244,  6280,  6316
  6352,  6388,  6424,  6460,  6496,  6532,  6568,  6604,  6640,  6676,  6712,  6748,  6784,  6820,  6856,  6892
  6928,  6964,  7000,  7036,  7072,  7108,  7144,  7180,  7208,  7242,  7276,  7310,  7344,  7378,  7412,  7446
  7480,  7514,  7548,  7582,  7616,  7650,  7684,  7718,  7752,  7786,  7820,  7854,  7888,  7922,  7956,  7990
  8024,  8058,  8092,  8126,  8160,  8194,  8228,  8262,  8296,  8330,  8364,  8398,  8432,  8466,  8500,  8534
  8568,  8602,  8636,  8670,  8704,  8738,  8772,  8806,  8840,  8874,  8908,  8942,  8976,  9010,  9044,  9078
  9112,  9146,  9180,  9214,  9248,  9282,  9316,  9350,  9384,  9418,  9452,  9486,  9520,  9554,  9588,  9622
  9656,  9690,  9724,  9758,  9792,  9826,  9860,  9894,  9928,  9962,  9996, 10030, 10064, 10098, 10132, 10166
 10200, 10234, 10268, 10302, 10336, 10370, 10404, 10438, 10472, 10506, 10540, 10574
*Elset, elset=_S_SURF-21_S4_1, internal, instance=RAIL-1, generate
  7233,  10599,     34
*Elset, elset=_S_SURF-21_S3_1, internal, instance=RAIL-1
    16,    52,    88,   124,   160,   196,   232,   268,   304,   340,   376,   412,   448,   484,   520,   556
   592,   628,   664,   700,   736,   772,   808,   844,   880,   916,   952,   988,  1024,  1060,  1096,  1132
  1168,  1204,  1240,  1276,  1312,  1348,  1384,  1420,  1456,  1492,  1528,  1564,  1600,  1636,  1672,  1708
  1744,  1780,  1816,  1852,  1888,  1924,  1960,  1996,  2032,  2068,  2104,  2140,  2176,  2212,  2248,  2284
  2320,  2356,  2392,  2428,  2464,  2500,  2536,  2572,  2608,  2644,  2680,  2716,  2752,  2788,  2824,  2860
  2896,  2932,  2968,  3004,  3040,  3076,  3112,  3148,  3184,  3220,  3256,  3292,  3328,  3364,  3400,  3436
  3472,  3508,  3544,  3580,  3614,  3650,  3686,  3722,  3758,  3794,  3830,  3866,  3902,  3938,  3974,  4010
  4046,  4082,  4118,  4154,  4190,  4226,  4262,  4298,  4334,  4370,  4406,  4442,  4478,  4514,  4550,  4586
  4622,  4658,  4694,  4730,  4766,  4802,  4838,  4874,  4910,  4946,  4982,  5018,  5054,  5090,  5126,  5162
  5198,  5234,  5270,  5306,  5342,  5378,  5414,  5450,  5486,  5522,  5558,  5594,  5630,  5666,  5702,  5738
  5774,  5810,  5846,  5882,  5918,  5954,  5990,  6026,  6062,  6098,  6134,  6170,  6206,  6242,  6278,  6314
  6350,  6386,  6422,  6458,  6494,  6530,  6566,  6602,  6638,  6674,  6710,  6746,  6782,  6818,  6854,  6890
  6926,  6962,  6998,  7034,  7070,  7106,  7142,  7178, 10608, 10642, 10676, 10710, 10744, 10778, 10812, 10846
 10880, 10914, 10948, 10982, 11016, 11050, 11084, 11118, 11152, 11186, 11220, 11254, 11288, 11322, 11356, 11390
 11424, 11458, 11492, 11526, 11560, 11594, 11628, 11662, 11696, 11730, 11764, 11798, 11832, 11866, 11900, 11934
 11968, 12002, 12036, 12070, 12104, 12138, 12172, 12206, 12240, 12274, 12308, 12342, 12376, 12410, 12444, 12478
 12512, 12546, 12580, 12614, 12648, 12682, 12716, 12750, 12784, 12818, 12852, 12886, 12920, 12954, 12988, 13022
 13056, 13090, 13124, 13158, 13192, 13226, 13260, 13294, 13328, 13362, 13396, 13430, 13464, 13498, 13532, 13566
 13600, 13634, 13668, 13702, 13736, 13770, 13804, 13838, 13872, 13906, 13940, 13974
*Elset, elset=_S_SURF-21_S5_1, internal, instance=RAIL-1, generate
 10633,  13999,     34
*Surface, type=ELEMENT, name=S_SURF-21
_S_SURF-21_S6_1, S6
_S_SURF-21_S4_1, S4
_S_SURF-21_S3_1, S3
_S_SURF-21_S5_1, S5
*Elset, elset=_S_SURF-23_S1_1, internal, instance=BRAKE-1-RAD-2, generate
   1,  108,    1
*Elset, elset=_S_SURF-23_S4_1, internal, instance=BRAKE-1-RAD-2, generate
  18,  108,   18
*Elset, elset=_S_SURF-23_S6_1, internal, instance=BRAKE-1-RAD-2, generate
  1,  91,  18
*Elset, elset=_S_SURF-23_S2_1, internal, instance=BRAKE-1-RAD-2, generate
   1,  108,    1
*Elset, elset=_S_SURF-23_S5_1, internal, instance=BRAKE-1-RAD-2
  37,  38,  39,  40,  41,  42,  43,  44,  45,  46,  47,  48,  49,  50,  51,  52
  53,  54,  91,  92,  93,  94,  95,  96,  97,  98,  99, 100, 101, 102, 103, 104
 105, 106, 107, 108
*Surface, type=ELEMENT, name=S_SURF-23
_S_SURF-23_S1_1, S1
_S_SURF-23_S4_1, S4
_S_SURF-23_S6_1, S6
_S_SURF-23_S2_1, S2
_S_SURF-23_S5_1, S5
*Elset, elset=_S_SURF-24_S1_1, internal, instance=BRAKE-1, generate
   1,  108,    1
*Elset, elset=_S_SURF-24_S4_1, internal, instance=BRAKE-1, generate
  18,  108,   18
*Elset, elset=_S_SURF-24_S6_1, internal, instance=BRAKE-1, generate
  1,  91,  18
*Elset, elset=_S_SURF-24_S2_1, internal, instance=BRAKE-1, generate
   1,  108,    1
*Elset, elset=_S_SURF-24_S5_1, internal, instance=BRAKE-1
  37,  38,  39,  40,  41,  42,  43,  44,  45,  46,  47,  48,  49,  50,  51,  52
  53,  54,  91,  92,  93,  94,  95,  96,  97,  98,  99, 100, 101, 102, 103, 104
 105, 106, 107, 108
*Surface, type=ELEMENT, name=S_SURF-24
_S_SURF-24_S1_1, S1
_S_SURF-24_S4_1, S4
_S_SURF-24_S6_1, S6
_S_SURF-24_S2_1, S2
_S_SURF-24_S5_1, S5
*Surface, type=NODE, name=S_SET-44_CNS__CNS_, internal
S_SET-44_CNS_, 1.
** Constraint: CONSTRAINT-1
*Coupling, constraint name=CONSTRAINT-1, ref node=M_SET-44, surface=S_SET-44_CNS__CNS_
*Kinematic, alpha=0.00014
** Constraint: CONSTRAINT-2
*Coupling, constraint name=CONSTRAINT-2, ref node=M_SET-84, surface=S_SURF-23
*Kinematic, alpha=0.00014
** Constraint: CONSTRAINT-3
*Coupling, constraint name=CONSTRAINT-3, ref node=M_SET-85, surface=S_SURF-24
*Kinematic, alpha=0.00014
*End Assembly
** 
** ELEMENT CONTROLS
** 
*Section Controls, name=EC-1, DISTORTION CONTROL=YES, hourglass=STIFFNESS
1., 1., 1.
*Section Controls, name=EC-2, DISTORTION CONTROL=YES, ELEMENT DELETION=YES, hourglass=STIFFNESS
1., 1., 1.
*Amplitude, name=AMP-1
             0.,              0.,           0.001,              1.
*Amplitude, name=AMP-2, definition=SMOOTH STEP
             0.,              0.,         0.00025,             0.1,         0.00035,             0.2,          0.0005,             0.5
         0.0006,             0.6,         0.00065,             0.8,         0.00075,             0.9,           0.001,              1.
*Amplitude, name=AMP-3
             0.,              0.,             0.1,              1.
*Amplitude, name=AMP-3-COPY
             0.,              0.,              1.,              1.,              6.,             0.2,            12.5,             0.1
*Amplitude, name=AMP-4
             0.,              1.,            0.05,              0.,              1.,              0.
*Amplitude, name=AMP-6, definition=SMOOTH STEP
             0.,              0.,            12.3,             10.
*Amplitude, name=MyAmp-7
             0.,              0.,            0.04,              1.
** 
** MATERIALS
** 
*Material, name=BRAKE
*Conductivity
45.,200.
32.,400.
30.,500.
25.,700.
22.,800.
*Density
300.,
*Elastic
 5.7e+10, 0.3,200.
*Specific Heat
 4e+09,
*Material, name=RAIL
*Conductivity
45.,
*Density
7830.,
*Elastic
 2.1e+11, 0.3
*Specific Heat
 5e+09,
*Material, name=S355
*Conductivity
  52.,  20.
  51., 100.
  48., 200.
  44., 300.
  43., 400.
  39., 500.
 35.6, 600.
  32., 700.
  28., 723.
  26., 850.
 26.4, 900.
  30.,1250.
  30.,1450.
 120.,1500.
 120.,2000.
*Density
7860.,
*Elastic
 2.06e+11,  0.29,   20.
 2.03e+11,  0.29,  100.
 2.01e+11, 0.295,  200.
    2e+11,  0.31,  300.
 1.65e+11, 0.315,  400.
    1e+11,  0.32,  500.
    6e+10,  0.32,  600.
    4e+10,  0.33,  700.
    3e+10,  0.35,  800.
    2e+10,  0.36,  900.
    1e+10,  0.39, 1000.
    1e+10,  0.39, 1500.
*Expansion
 1.2e-05,  20.
 1.5e-05,1000.
 1.5e-05,1500.
*Inelastic Heat Fraction
         0.9,
*Latent Heat
270000.,1450.,1500.
*Plastic
 4.5e+08,   0.,  20.
 4.5e+08,   0., 100.
 4.2e+08,   0., 200.
 3.9e+08,   0., 300.
 3.2e+08,   0., 400.
 2.6e+08,   0., 500.
 1.7e+08,   0., 600.
   6e+07,   0., 700.
   5e+07,   0., 800.
   5e+07,   0., 900.
   5e+07,   0.,1000.
   5e+07,   0.,1500.
*Specific Heat
480.,  20.
507., 100.
532., 200.
574., 300.
624., 400.
703., 500.
788., 600.
870., 700.
798., 723.
679., 850.
658., 900.
666.,1250.
666.,1450.
670.,1500.
670.,2000.
*Material, name=WHEEL
*Conductivity
45.,
*Density
7800.,
*Elastic
 2.06e+11, 0.328,  200.
*Specific Heat
 5.5e+08,
** 
** INTERACTION PROPERTIES
** 
*Surface Interaction, name=INTPROP-1
*Friction
 0.3,
*Surface Behavior, pressure-overclosure=HARD
*Surface Interaction, name=INTPROP-2
*Friction
  0.3, , , 20.
 0.28, , ,200.
 0.25, , ,400.
*Surface Behavior, pressure-overclosure=HARD
*Gap Conductance
47., 0.
47., 9.
 0.,10.
*Gap Heat Generation
1., 0.5
*Surface Interaction, name=INTPROP-2-COPY
*Friction
  0.3, , , 20.
 0.28, , ,200.
 0.25, , ,400.
*Surface Behavior, no separation, pressure-overclosure=HARD
*Gap Conductance
47., 0.
47., 9.
 0.,10.
*Gap Heat Generation
15., 0.7
*Surface Interaction, name=MyIntProp
*Friction
 0.008,
*Surface Behavior, pressure-overclosure=HARD
** 
** BOUNDARY CONDITIONS
** 
** Name: Disp-BC-2 Type: Displacement/Rotation
*Boundary
SET-56, 2, 2
** Name: Disp-BC-3 Type: Displacement/Rotation
*Boundary
SET-56, 5, 5
** Name: Disp-BC-4 Type: Displacement/Rotation
*Boundary
SET-56, 6, 6
** Name: Disp-BC-5 Type: Displacement/Rotation
*Boundary
SET-43, 1, 1
** Name: Disp-BC-6 Type: Displacement/Rotation
*Boundary
SET-43, 2, 2
** Name: Disp-BC-7 Type: Displacement/Rotation
*Boundary
SET-43, 3, 3
** Name: Disp-BC-8 Type: Displacement/Rotation
*Boundary
SET-43, 4, 4
** Name: Disp-BC-9 Type: Displacement/Rotation
*Boundary
SET-43, 5, 5
** Name: Disp-BC-10 Type: Displacement/Rotation
*Boundary
SET-43, 6, 6
** 
** PREDEFINED FIELDS
** 
** Name: Field-1   Type: Temperature
*Initial Conditions, type=TEMPERATURE
SET-70, 20.
** Name: IC-1   Type: Velocity
*Initial Conditions, type=ROTATING VELOCITY
SET-86, 5., 0., 0., -5.44, 
0., 0., 0., 0., 0., 70., 
** ----------------------------------------------------------------
** 
** STEP: Step-1
** 
*Step, name=Step-1, nlgeom=YES
*Dynamic Temperature-displacement, Explicit, element by element
, 0.04
*Bulk Viscosity
0.06, 1.2
** 
** BOUNDARY CONDITIONS
** 
** Name: Disp-BC-2 Type: Displacement/Rotation
*Boundary, op=NEW
** Name: Disp-BC-3 Type: Displacement/Rotation
*Boundary, op=NEW
** Name: Disp-BC-4 Type: Displacement/Rotation
*Boundary, op=NEW
** Name: Disp-BC-5 Type: Displacement/Rotation
*Boundary, op=NEW
SET-43, 1, 1
** Name: Disp-BC-6 Type: Displacement/Rotation
*Boundary, op=NEW
SET-43, 2, 2
** Name: Disp-BC-7 Type: Displacement/Rotation
*Boundary, op=NEW
SET-43, 3, 3
** Name: Disp-BC-8 Type: Displacement/Rotation
*Boundary, op=NEW
SET-43, 4, 4
** Name: Disp-BC-9 Type: Displacement/Rotation
*Boundary, op=NEW
SET-43, 5, 5
** Name: Disp-BC-10 Type: Displacement/Rotation
*Boundary, op=NEW
SET-43, 6, 6
** Name: Disp-BC-11 Type: Displacement/Rotation
*Boundary, op=NEW, amplitude=AMP-6
SET-56, 1, 1
** Name: Disp-BC-12 Type: Displacement/Rotation
*Boundary, op=NEW, amplitude=AMP-6
SET-56, 2, 2
** Name: Disp-BC-13 Type: Displacement/Rotation
*Boundary, op=NEW, amplitude=AMP-6
SET-56, 4, 4, 10.
** Name: Disp-BC-14 Type: Displacement/Rotation
*Boundary, op=NEW, amplitude=AMP-6
SET-56, 5, 5
** Name: Disp-BC-15 Type: Displacement/Rotation
*Boundary, op=NEW, amplitude=AMP-6
SET-56, 6, 6
** Name: Disp-BC-16 Type: Displacement/Rotation
*Boundary, op=NEW
SET-80, 1, 1
** Name: Disp-BC-17 Type: Displacement/Rotation
*Boundary, op=NEW
SET-80, 2, 2
** Name: Disp-BC-18 Type: Displacement/Rotation
*Boundary, op=NEW
SET-80, 4, 4
** Name: Disp-BC-19 Type: Displacement/Rotation
*Boundary, op=NEW
SET-80, 5, 5
** Name: Disp-BC-20 Type: Displacement/Rotation
*Boundary, op=NEW
SET-80, 6, 6
** 
** LOADS
** 
** Name: CFORCE-1   Type: Concentrated force
*Cload, amplitude=MyAmp-7
SET-82, 3, -1e+09
** Name: CFORCE-2   Type: Concentrated force
*Cload, amplitude=MyAmp-7
SET-83, 3, 1e+09
** 
** INTERACTIONS
** 
** Interaction: INT-BRAKE1-1
*Contact Pair, interaction=MyIntProp, mechanical constraint=KINEMATIC, cpset=INT-BRAKE1-1
S_SURF-17, M_SURF-17
** Interaction: INT-BRAKE2-1
*Contact Pair, interaction=MyIntProp, mechanical constraint=KINEMATIC, cpset=INT-BRAKE2-1
S_SURF-19, M_SURF-19
** Interaction: INT-RAIL-1
*Contact Pair, interaction=MyIntProp, mechanical constraint=KINEMATIC, cpset=INT-RAIL-1
S_SURF-21, M_SURF-21
** 
** OUTPUT REQUESTS
** 
*Restart, write, number interval=1, time marks=NO
** 
** FIELD OUTPUT: F-Output-1
** 
*Output, field, number interval=50
*Node Output
A, NT, RF, RFL, U, V
*Element Output, directions=YES
EVF, HFL, LE, PE, PEEQ, PEEQVAVG, PEVAVG, S, SVAVG, TEMP
*Contact Output
CSTRESS, 
** 
** HISTORY OUTPUT: H-Output-1
** 
*Output, history, variable=PRESELECT
*End Step
